LTspice 24.0.12 for Windows
Circuit: * C:\Users\Ernesto\Desktop\Ingeniería Electrónica\9- Noveno Semestre\Electrónica Industrial\1- Trabajos Prácticos\2- Trabajos Prácticos del Teórico (TPT)\TPT5 - Circuito de Disparo para MOSFET\TPT5 - Circuito de Disparo.asc
Start Time: Sun Apr 19 21:01:29 2026
Error on line 2170 : .model irfb4110 vdmos(rg=1.0 vto=4.0 rd=1.5m rs=1.5m rb=2m kp=120  lambda=0.01 cgs=9n cgdmax=4n cgdmin=0.6n cds=0.5n  vds=100 ron=3.7m qg=210n mfg=international_rectifier)
	* Unrecognized parameter "cds" -- ignored
solver = Normal
Maximum thread count: 12
tnom = 27
temp = 27
method = modified trap
WARNING: Less than two connections to node nc_02.  This node is used by r:u1:18.
Direct Newton iteration for .op point succeeded.
Ignoring empty pin current: Ix(u1:gnd)
Ignoring empty pin current: Ix(u1:gnd)
Changing Tseed to 1e-11
Heightened Def Con from 2.00006e-11 to 2.02e-09
Heightened Def Con from 3.20931e-07 to 3.20932e-07
Heightened Def Con from 3.20932e-07 to 3.20932e-07
Heightened Def Con from 3.20932e-07 to 3.20932e-07
Heightened Def Con from 3.20932e-07 +to 3.20932e-07
Heightened Def Con from 3.20932e-07 to 3.20932e-07
Heightened Def Con from 3.20932e-07 +to 3.20932e-07
Heightened Def Con from 3.20932e-07 +to 3.20932e-07
Heightened Def Con from 3.20932e-07 to 3.20932e-07
Heightened Def Con from 3.20932e-07 to 3.20932e-07
Heightened Def Con from 3.20932e-07 +to 3.20932e-07
Heightened Def Con from 3.20932e-07 to 3.20932e-07
Heightened Def Con from 3.20932e-07 to 3.20932e-07
Heightened Def Con from 3.20932e-07 ++++++to 3.20932e-07
Heightened Def Con from 3.20932e-07 ++++++to 3.20932e-07
Heightened Def Con from 3.20932e-07 to 3.20932e-07
Heightened Def Con from 3.20932e-07 ++++to 3.20932e-07
Heightened Def Con from 3.20932e-07 to 3.20932e-07
Heightened Def Con from 3.20932e-07 +to 3.20932e-07
Heightened Def Con from 3.20932e-07 +++++++++++++++++to 3.20932e-07
Heightened Def Con from 3.20932e-07 to 3.20932e-07
Heightened Def Con from 3.20932e-07 ++++to 3.20932e-07
Heightened Def Con from 3.20932e-07 +++++++to 3.20932e-07
Heightened Def Con from 3.20932e-07 +to 3.20932e-07
Heightened Def Con from 3.20932e-07 to 3.20932e-07
Heightened Def Con from 3.20932e-07 ++to 3.20932e-07
Heightened Def Con from 3.20932e-07 +++++++++++++to 3.20933e-07
Heightened Def Con from 3.20933e-07 +++++++++++++++++++++++to 3.20933e-07
Heightened Def Con from 3.20933e-07 ++++++++++++to 3.20933e-07
Heightened Def Con from 3.20933e-07 ++to 3.20933e-07
Heightened Def Con from 3.20933e-07 +++++++++to 3.20933e-07
Heightened Def Con from 3.20933e-07 +++++to 3.20933e-07
Heightened Def Con from 3.20933e-07 ++to 3.20933e-07
Heightened Def Con from 3.20933e-07 +to 3.20933e-07
Heightened Def Con from 3.20933e-07 +++to 3.20933e-07
Heightened Def Con from 3.20933e-07 ++++to 3.20933e-07
Heightened Def Con from 3.20933e-07 to 3.20933e-07
Heightened Def Con from 3.20933e-07 ++++to 3.20933e-07
Heightened Def Con from 3.20933e-07 +++++++++++++++++++++++to 3.20933e-07
Heightened Def Con from 3.20933e-07 +to 3.20933e-07
Heightened Def Con from 3.20933e-07 +++++++++++++to 3.20933e-07
Heightened Def Con from 3.20933e-07 +++to 3.20933e-07
Heightened Def Con from 3.20933e-07 ++++++to 3.20933e-07
Heightened Def Con from 3.20933e-07 +++++++++++++++++++to 3.20933e-07
Heightened Def Con from 3.20933e-07 +++to 3.20933e-07
Heightened Def Con from 3.20933e-07 +++++to 3.20933e-07
Heightened Def Con from 3.20933e-07 ++++++++++++++++to 3.20933e-07
Heightened Def Con from 3.20933e-07 +to 3.20933e-07
Heightened Def Con from 3.20933e-07 to 3.20934e-07
Heightened Def Con from 3.20934e-07 ++to 3.20934e-07
Heightened Def Con from 3.20934e-07 ++++++to 3.20934e-07
Heightened Def Con from 3.20934e-07 +++++++++to 3.20934e-07
Heightened Def Con from 3.20934e-07 ++++++++++++++++++++++++to 3.20934e-07
Heightened Def Con from 3.20934e-07 ++to 3.20934e-07
Heightened Def Con from 3.20934e-07 ++++++++++++++++++++to 3.20934e-07
Heightened Def Con from 3.20934e-07 ++++++++to 3.20934e-07
Heightened Def Con from 3.20934e-07 ++++++++++to 3.20934e-07
Heightened Def Con from 3.20934e-07 ++++++++++++++++++++to 3.20934e-07
Heightened Def Con from 3.20934e-07 +++++++++++++to 3.20934e-07
Heightened Def Con from 3.20934e-07 ++++++to 3.20934e-07
Heightened Def Con from 3.20934e-07 ++to 3.20934e-07
Heightened Def Con from 3.20934e-07 to 3.20934e-07
Heightened Def Con from 3.20934e-07 +++to 3.20934e-07
Heightened Def Con from 3.20934e-07 +++++++++++++to 3.20935e-07
Heightened Def Con from 3.20935e-07 +++++to 3.20935e-07
Heightened Def Con from 3.20935e-07 +++++++to 3.20935e-07
Heightened Def Con from 3.20935e-07 +to 3.20935e-07
Heightened Def Con from 3.20935e-07 ++++++++++to 3.20935e-07
Heightened Def Con from 3.20935e-07 +++to 3.20935e-07
Heightened Def Con from 3.20935e-07 +++to 3.20935e-07
Heightened Def Con from 3.20935e-07 +++++++++++++++to 3.20935e-07
Heightened Def Con from 3.20935e-07 ++to 3.20935e-07
Heightened Def Con from 3.20935e-07 +++++++to 3.20935e-07
Heightened Def Con from 3.20935e-07 to 3.20935e-07
Heightened Def Con from 3.20935e-07 +++++++++++to 3.20935e-07
Heightened Def Con from 3.20935e-07 +++++++++++to 3.20935e-07
Heightened Def Con from 3.20935e-07 ++++++++++++++to 3.20935e-07
Heightened Def Con from 3.20935e-07 ++to 3.20935e-07
Heightened Def Con from 3.20935e-07 to 3.20935e-07
Heightened Def Con from 3.20935e-07 +to 3.20935e-07
Heightened Def Con from 3.20935e-07 ++++to 3.20935e-07
Heightened Def Con from 3.20935e-07 +++++++++++++++++++++to 3.20935e-07
Heightened Def Con from 3.20935e-07 to 3.20935e-07
Heightened Def Con from 3.20935e-07 ++++++++++++++++++++to 3.20935e-07
Heightened Def Con from 3.20935e-07 +++++to 3.20936e-07
Heightened Def Con from 3.20936e-07 ++to 3.20936e-07
Heightened Def Con from 3.20936e-07 ++to 3.20936e-07
Heightened Def Con from 3.20936e-07 +++to 3.20936e-07
Heightened Def Con from 3.20936e-07 +to 3.20936e-07
Heightened Def Con from 3.20936e-07 +++++to 3.20936e-07
Heightened Def Con from 3.20936e-07 ++++++++++++++to 3.20936e-07
Heightened Def Con from 3.20936e-07 +++++++++to 3.20936e-07
Heightened Def Con from 3.20936e-07 +to 3.20936e-07
Heightened Def Con from 3.20936e-07 +++to 3.20936e-07
Heightened Def Con from 3.20936e-07 +++to 3.20936e-07
Heightened Def Con from 3.20936e-07 ++++++++to 3.20936e-07
Heightened Def Con from 3.20936e-07 +++++++++++++to 3.20937e-07
Heightened Def Con from 3.20937e-07 +++++++++++++to 3.20937e-07
Heightened Def Con from 3.20937e-07 ++++++to 3.20937e-07
Heightened Def Con from 3.20937e-07 ++++++++++++to 3.20937e-07
Heightened Def Con from 3.20937e-07 +to 3.20937e-07
Heightened Def Con from 3.20937e-07 +to 3.20937e-07
Heightened Def Con from 3.20937e-07 ++++++++to 3.20937e-07
Heightened Def Con from 3.20937e-07 ++++++++to 3.20937e-07
Heightened Def Con from 3.20937e-07 ++to 3.20937e-07
Heightened Def Con from 3.20937e-07 ++++++++++++++++++to 3.20937e-07
Heightened Def Con from 3.20937e-07 +to 3.20937e-07
Heightened Def Con from 3.20937e-07 +to 3.20937e-07
Heightened Def Con from 3.20937e-07 to 3.20937e-07
Heightened Def Con from 3.20937e-07 ++to 3.20937e-07
Heightened Def Con from 3.20937e-07 +++++++++++++++++++++++++to 3.20937e-07
Heightened Def Con from 3.20937e-07 +++to 3.20937e-07
Heightened Def Con from 3.20937e-07 +++++++++++to 3.20937e-07
Heightened Def Con from 3.20937e-07 ++++++++++++++++++++++to 3.20937e-07
Heightened Def Con from 3.20937e-07 +to 3.20938e-07
Heightened Def Con from 3.20938e-07 +to 3.20938e-07
Heightened Def Con from 3.20938e-07 +to 3.20938e-07
Heightened Def Con from 3.20938e-07 ++++++++to 3.20938e-07
Heightened Def Con from 3.20938e-07 +to 3.20938e-07
Heightened Def Con from 3.20938e-07 ++++to 3.20938e-07
Heightened Def Con from 3.20938e-07 ++++++++++++++++to 3.20938e-07
Heightened Def Con from 3.20938e-07 ++to 3.20938e-07
Heightened Def Con from 3.20938e-07 +++++++++++++to 3.20938e-07
Heightened Def Con from 3.20938e-07 +to 3.20939e-07
Heightened Def Con from 3.20939e-07 to 3.20939e-07
Heightened Def Con from 3.20939e-07 ++++++++to 3.20939e-07
Heightened Def Con from 3.20939e-07 ++to 3.20939e-07
Heightened Def Con from 3.20939e-07 +++++++++++++to 3.20939e-07
Heightened Def Con from 3.20939e-07 +++++++++++++++++to 3.20939e-07
Heightened Def Con from 3.20939e-07 ++++++++++++++++++++++++++to 3.20939e-07
Heightened Def Con from 3.20939e-07 +to 3.20939e-07
Heightened Def Con from 3.20939e-07 +++++++++++++to 3.20939e-07
Heightened Def Con from 3.20939e-07 +++to 3.20939e-07
Heightened Def Con from 3.20939e-07 +++++++++++++to 3.20939e-07
Heightened Def Con from 3.20939e-07 ++to 3.20939e-07
Heightened Def Con from 3.20939e-07 +++++++++++to 3.20939e-07
Heightened Def Con from 3.20939e-07 +++++++++to 3.20939e-07
Heightened Def Con from 3.20939e-07 ++++to 3.20939e-07
Heightened Def Con from 3.20939e-07 to 3.20939e-07
Heightened Def Con from 3.20939e-07 +to 3.20939e-07
Heightened Def Con from 3.20939e-07 ++to 3.20939e-07
Heightened Def Con from 3.20939e-07 +++to 3.20939e-07
Heightened Def Con from 3.20939e-07 +++to 3.20939e-07
Heightened Def Con from 3.20939e-07 ++++to 3.2094e-07
Heightened Def Con from 3.2094e-07 +++++to 3.2094e-07
Heightened Def Con from 3.2094e-07 +++++++++++++++++++++++to 3.2094e-07
Heightened Def Con from 3.2094e-07 +++++++++to 3.2094e-07
Heightened Def Con from 3.2094e-07 to 3.2094e-07
Heightened Def Con from 3.2094e-07 +++++++++to 3.2094e-07
Heightened Def Con from 3.2094e-07 to 3.2094e-07
Heightened Def Con from 3.2094e-07 ++++++++to 3.20941e-07
Heightened Def Con from 3.20941e-07 to 3.20941e-07
Heightened Def Con from 3.20941e-07 ++++++to 3.20941e-07
Heightened Def Con from 3.20941e-07 ++++to 3.20941e-07
Heightened Def Con from 3.20941e-07 ++++++++++to 3.20941e-07
Heightened Def Con from 3.20941e-07 +++++to 3.20941e-07
Heightened Def Con from 3.20941e-07 ++++to 3.20941e-07
Heightened Def Con from 3.20941e-07 +++++++++++to 3.20941e-07
Heightened Def Con from 3.20941e-07 +++to 3.20941e-07
Heightened Def Con from 3.20941e-07 +++++++++to 3.20941e-07
Heightened Def Con from 3.20941e-07 +to 3.20941e-07
Heightened Def Con from 3.20941e-07 ++++to 3.20942e-07
Heightened Def Con from 3.20942e-07 ++++to 3.20942e-07
Heightened Def Con from 3.20942e-07 ++++++++++++++++++to 3.20942e-07
Heightened Def Con from 3.20942e-07 +to 3.20942e-07
Heightened Def Con from 3.20942e-07 +++++to 3.20942e-07
Heightened Def Con from 3.20942e-07 ++++++++++++to 3.20942e-07
Heightened Def Con from 3.20942e-07 ++to 3.20942e-07
Heightened Def Con from 3.20942e-07 ++++++++++++++to 3.20942e-07
Heightened Def Con from 3.20942e-07 ++++++to 3.20942e-07
Heightened Def Con from 3.20942e-07 ++++++++++++++++++to 3.20942e-07
Heightened Def Con from 3.20942e-07 +to 3.20942e-07
Heightened Def Con from 3.20942e-07 +to 3.20942e-07
Heightened Def Con from 3.20942e-07 ++++++++++++++++++++++++++to 3.20942e-07
Heightened Def Con from 3.20942e-07 +++++++++++++++++++to 3.20942e-07
Heightened Def Con from 3.20942e-07 ++++to 3.20942e-07
Heightened Def Con from 3.20943e-07 +++++++++to 3.20943e-07
Heightened Def Con from 3.20943e-07 +to 3.20943e-07
Heightened Def Con from 3.20943e-07 ++++++++++++++++++++++++to 3.20943e-07
Heightened Def Con from 3.20943e-07 to 3.20943e-07
Heightened Def Con from 3.20943e-07 ++++++++++to 3.20943e-07
Heightened Def Con from 3.20943e-07 +++++++++++++++to 3.20943e-07
Heightened Def Con from 3.20943e-07 to 3.20943e-07
Heightened Def Con from 3.20943e-07 ++++++to 3.20943e-07
Heightened Def Con from 3.20943e-07 +++++to 3.20943e-07
Heightened Def Con from 3.20943e-07 ++++++++++++++++++++to 3.20944e-07
Heightened Def Con from 3.20944e-07 +to 3.20944e-07
Heightened Def Con from 3.20944e-07 +++to 3.20944e-07
Heightened Def Con from 3.20944e-07 +++to 3.20944e-07
Heightened Def Con from 3.20944e-07 ++++++++to 3.20944e-07
Heightened Def Con from 3.20944e-07 +++++to 3.20944e-07
Heightened Def Con from 3.20944e-07 +++++to 3.20944e-07
Heightened Def Con from 3.20944e-07 to 3.20944e-07
Heightened Def Con from 3.20944e-07 +++to 3.20945e-07
Heightened Def Con from 3.20945e-07 +++to 3.20945e-07
Heightened Def Con from 3.20945e-07 ++to 3.20945e-07
Heightened Def Con from 3.20945e-07 +to 3.20945e-07
Heightened Def Con from 3.20945e-07 to 3.20945e-07
Heightened Def Con from 3.20945e-07 +to 3.20945e-07
Heightened Def Con from 3.20946e-07 +++++to 3.20946e-07
Heightened Def Con from 3.20946e-07 +++++++++++++++++++++++to 3.20946e-07
Heightened Def Con from 3.20946e-07 +++++++to 3.20946e-07
Heightened Def Con from 3.20946e-07 +++++++++to 3.20946e-07
Heightened Def Con from 3.20946e-07 ++++++++to 3.20946e-07
Heightened Def Con from 3.20946e-07 ++++++++++to 3.20946e-07
Heightened Def Con from 3.20946e-07 +++++++++++to 3.20946e-07
Heightened Def Con from 3.20946e-07 ++++++++++++to 3.20946e-07
Heightened Def Con from 3.20946e-07 +to 3.20946e-07
Heightened Def Con from 3.20946e-07 +++++++++++++++++++++++++++to 3.20946e-07
Heightened Def Con from 3.20946e-07 ++to 3.20946e-07
Heightened Def Con from 3.20946e-07 +++++to 3.20946e-07
Heightened Def Con from 3.20946e-07 to 3.20947e-07
Heightened Def Con from 3.20947e-07 ++++++++++++++++to 3.20947e-07
Heightened Def Con from 3.20947e-07 +++++to 3.20947e-07
Heightened Def Con from 3.20947e-07 +++++++to 3.20947e-07
Heightened Def Con from 3.20947e-07 ++++to 3.20947e-07
Heightened Def Con from 3.20947e-07 +to 3.20947e-07
Heightened Def Con from 3.20947e-07 ++++++++to 3.20947e-07
Heightened Def Con from 3.20947e-07 +++++++++to 3.20947e-07
Heightened Def Con from 3.20947e-07 +++++++++++to 3.20947e-07
Heightened Def Con from 3.20947e-07 ++++++++++to 3.20948e-07
Heightened Def Con from 3.20948e-07 +++++++to 3.20948e-07
Heightened Def Con from 3.20948e-07 +++to 3.20948e-07
Heightened Def Con from 3.20948e-07 ++++++++++++++++++++++++++++to 3.2095e-07
Heightened Def Con from 3.2095e-07 ++to 3.2095e-07
Heightened Def Con from 3.2095e-07 to 3.2095e-07
Heightened Def Con from 3.2095e-07 ++++++++++++++++++++++to 3.2095e-07
Heightened Def Con from 3.2095e-07 +++++++++++++++++++++++++++to 3.2095e-07
Heightened Def Con from 3.2095e-07 +++++to 3.2095e-07
Heightened Def Con from 3.2095e-07 to 3.2095e-07
Heightened Def Con from 3.2095e-07 ++++++++++++++++to 3.2095e-07
Heightened Def Con from 3.2095e-07 +to 3.2095e-07
Heightened Def Con from 3.2095e-07 to 3.20951e-07
Heightened Def Con from 3.20951e-07 +++++++to 3.20951e-07
Heightened Def Con from 3.20951e-07 ++++++++++++++++++++++++to 3.20951e-07
Heightened Def Con from 3.20951e-07 +to 3.20951e-07
Heightened Def Con from 3.20951e-07 ++++to 3.20951e-07
Heightened Def Con from 3.20951e-07 to 3.20951e-07
Heightened Def Con from 3.20951e-07 +++++++to 3.20951e-07
Heightened Def Con from 3.20951e-07 +++++to 3.20952e-07
Heightened Def Con from 3.20952e-07 +++++++++++to 3.20952e-07
Heightened Def Con from 3.20952e-07 +to 3.20952e-07
Heightened Def Con from 3.20952e-07 ++to 3.20952e-07
Heightened Def Con from 3.20952e-07 ++++++++++++++to 3.20952e-07
Heightened Def Con from 3.20952e-07 +to 3.20952e-07
Heightened Def Con from 3.20952e-07 +to 3.20952e-07
Heightened Def Con from 3.20952e-07 +++to 3.20952e-07
Heightened Def Con from 3.20952e-07 +++++to 3.20952e-07
Heightened Def Con from 3.20952e-07 to 3.20953e-07
Heightened Def Con from 3.20953e-07 ++++++to 3.20953e-07
Heightened Def Con from 3.20953e-07 ++++to 3.20953e-07
Heightened Def Con from 3.20953e-07 +to 3.20953e-07
Heightened Def Con from 3.20953e-07 ++++++++to 3.20953e-07
Heightened Def Con from 3.20953e-07 +to 3.20953e-07
Heightened Def Con from 3.20953e-07 +++++++++++++++to 3.20953e-07
Heightened Def Con from 3.20953e-07 +++++++++++++++to 3.20953e-07
Heightened Def Con from 3.20953e-07 ++++to 3.20953e-07
Heightened Def Con from 3.20953e-07 +++++++++++to 3.20953e-07
Heightened Def Con from 3.20953e-07 ++++++++to 3.20953e-07
Heightened Def Con from 3.20953e-07 +++to 3.20953e-07
Heightened Def Con from 3.20953e-07 +to 3.20953e-07
Heightened Def Con from 3.20953e-07 +++++to 3.20954e-07
Heightened Def Con from 3.20954e-07 +++++to 3.20954e-07
Heightened Def Con from 3.20954e-07 ++to 3.20954e-07
Heightened Def Con from 3.20954e-07 ++++++to 3.20954e-07
Heightened Def Con from 3.20954e-07 ++++++++++++++++++++++++++++to 3.20956e-07
Heightened Def Con from 3.20956e-07 +++++++++++++to 3.20956e-07
Heightened Def Con from 3.20956e-07 to 3.20956e-07
Heightened Def Con from 3.20956e-07 ++to 3.20956e-07
Heightened Def Con from 3.20956e-07 ++++++++to 3.20956e-07
Heightened Def Con from 3.20956e-07 +++to 3.20957e-07
Heightened Def Con from 3.20957e-07 ++++to 3.20957e-07
Heightened Def Con from 3.20957e-07 +to 3.20957e-07
Heightened Def Con from 3.20957e-07 +++++++++++++++++to 3.20957e-07
Heightened Def Con from 3.20957e-07 +to 3.20957e-07
Heightened Def Con from 3.20957e-07 +++++++to 3.20957e-07
Heightened Def Con from 3.20957e-07 ++to 3.20957e-07
Heightened Def Con from 3.20957e-07 ++++++++++to 3.20958e-07
Heightened Def Con from 3.20958e-07 ++++to 3.20958e-07
Heightened Def Con from 3.20958e-07 ++++++to 3.20958e-07
Heightened Def Con from 3.20958e-07 ++++++++++++++++++to 3.20958e-07
Heightened Def Con from 3.20958e-07 +++++++++to 3.20958e-07
Heightened Def Con from 3.20958e-07 +to 3.20958e-07
Heightened Def Con from 3.20958e-07 +++++++++++to 3.20958e-07
Heightened Def Con from 3.20958e-07 ++++to 3.20958e-07
Heightened Def Con from 3.20958e-07 ++++++++++++++++++++++++++++to 3.2096e-07
Heightened Def Con from 3.2096e-07 +++++++++++++to 3.2096e-07
Heightened Def Con from 3.2096e-07 +to 3.2096e-07
Heightened Def Con from 3.2096e-07 ++to 3.2096e-07
Heightened Def Con from 3.2096e-07 ++to 3.2096e-07
Heightened Def Con from 3.2096e-07 to 3.2096e-07
Heightened Def Con from 3.2096e-07 +to 3.20961e-07
Heightened Def Con from 3.20961e-07 ++++++++++to 3.20961e-07
Heightened Def Con from 3.20961e-07 ++to 3.20961e-07
Heightened Def Con from 3.20961e-07 ++++++++++++++++++++to 3.20961e-07
Heightened Def Con from 3.20961e-07 +++++++to 3.20961e-07
Heightened Def Con from 3.20961e-07 ++++++++++++++++++++++++++++to 3.20963e-07
Heightened Def Con from 3.20963e-07 ++++to 3.20963e-07
Heightened Def Con from 3.20963e-07 +++++++to 3.20963e-07
Heightened Def Con from 3.20963e-07 +++to 3.20963e-07
Heightened Def Con from 3.20963e-07 ++++to 3.20963e-07
Heightened Def Con from 3.20963e-07 +++++++++++++to 3.20963e-07
Heightened Def Con from 3.20963e-07 to 3.20963e-07
Heightened Def Con from 3.20963e-07 +++++++++++++++++++to 3.20963e-07
Heightened Def Con from 3.20963e-07 +++++++++++++++++++++++++++to 3.20963e-07
Heightened Def Con from 3.20963e-07 ++to 3.20963e-07
Heightened Def Con from 3.20963e-07 +++++to 3.20963e-07
Heightened Def Con from 3.20963e-07 +++to 3.20964e-07
Heightened Def Con from 3.20964e-07 +to 3.20964e-07
Heightened Def Con from 3.20964e-07 +++++++++++++++++to 3.20964e-07
Heightened Def Con from 3.20964e-07 ++to 3.20964e-07
Heightened Def Con from 3.20964e-07 ++++++++++++++to 3.20964e-07
Heightened Def Con from 3.20964e-07 +++++++to 3.20965e-07
Heightened Def Con from 3.20965e-07 +to 3.20965e-07
Heightened Def Con from 3.20965e-07 +++++++++++to 3.20965e-07
Heightened Def Con from 3.20965e-07 ++++++++++++++to 3.20966e-07
Heightened Def Con from 3.20966e-07 ++to 3.20966e-07
Heightened Def Con from 3.20966e-07 ++++++to 3.20966e-07
Heightened Def Con from 3.20966e-07 ++++++to 3.20966e-07
Heightened Def Con from 3.20966e-07 +++++++++++++++to 3.20966e-07
Heightened Def Con from 3.20966e-07 ++++++++++to 3.20966e-07
Heightened Def Con from 3.20966e-07 +++to 3.20966e-07
Heightened Def Con from 3.20966e-07 ++++++++++++++++to 3.20966e-07
Heightened Def Con from 3.20966e-07 to 3.20966e-07
Heightened Def Con from 3.20966e-07 ++++++to 3.20966e-07
Heightened Def Con from 3.20966e-07 ++to 3.20966e-07
Heightened Def Con from 3.20966e-07 ++++++++to 3.20966e-07
Heightened Def Con from 3.20966e-07 +++to 3.20966e-07
Heightened Def Con from 3.20966e-07 +++++++++++++++++++++++++++++to 3.20982e-07
Heightened Def Con from 3.20982e-07 +to 3.20982e-07
Heightened Def Con from 3.20982e-07 ++++to 3.20983e-07
Heightened Def Con from 3.20983e-07 +++++to 3.20983e-07
Heightened Def Con from 3.20983e-07 +to 3.20983e-07
Heightened Def Con from 3.20983e-07 ++to 3.20983e-07
Heightened Def Con from 3.20983e-07 +to 3.20983e-07
Heightened Def Con from 3.20983e-07 +to 3.20983e-07
Heightened Def Con from 3.20983e-07 to 3.20983e-07
Heightened Def Con from 3.20983e-07 +++++++++++to 3.20984e-07
Heightened Def Con from 3.20984e-07 ++++++++++++++++++++to 3.20984e-07
Heightened Def Con from 3.20984e-07 ++++++++++++++to 3.20984e-07
Heightened Def Con from 3.20985e-07 ++++++++to 3.20985e-07
Heightened Def Con from 3.20985e-07 ++to 3.20985e-07
Heightened Def Con from 3.20985e-07 +++to 3.20985e-07
Heightened Def Con from 3.20985e-07 to 3.20985e-07
Heightened Def Con from 3.20985e-07 +to 3.20986e-07
Heightened Def Con from 3.20986e-07 +to 3.20986e-07
Heightened Def Con from 3.20986e-07 ++++++++++to 3.20986e-07
Heightened Def Con from 3.20986e-07 ++++++++to 3.20986e-07
Heightened Def Con from 3.20986e-07 +to 3.20986e-07
Heightened Def Con from 3.20986e-07 to 3.20986e-07
Heightened Def Con from 3.20986e-07 ++++++to 3.20986e-07
Heightened Def Con from 3.20986e-07 +to 3.20986e-07
Heightened Def Con from 3.20986e-07 ++++to 3.20986e-07
Heightened Def Con from 3.20986e-07 ++++++++to 3.20986e-07
Heightened Def Con from 3.20986e-07 ++to 3.20986e-07
Heightened Def Con from 3.20986e-07 +++++++++to 3.20987e-07
Heightened Def Con from 3.20988e-07 +++++++++++++++++to 3.20988e-07
Heightened Def Con from 3.20988e-07 ++++to 3.20988e-07
Heightened Def Con from 3.20988e-07 +++++++++++++++++++++++++++++to 3.2099e-07
Heightened Def Con from 3.2099e-07 +++++to 3.2099e-07
Heightened Def Con from 3.2099e-07 ++++++++++++++++++to 3.2099e-07
Heightened Def Con from 3.2099e-07 +++to 3.20991e-07
Heightened Def Con from 3.20991e-07 +++++++++++++to 3.20991e-07
Heightened Def Con from 3.20991e-07 ++++++++++to 3.20991e-07
Heightened Def Con from 3.20991e-07 to 3.20991e-07
Heightened Def Con from 3.20992e-07 ++++to 3.20992e-07
Heightened Def Con from 3.20992e-07 ++++++++++to 3.20992e-07
Heightened Def Con from 3.20992e-07 +++to 3.20992e-07
Heightened Def Con from 3.20993e-07 +++++++++++++++++++++++++++++to 3.20993e-07
Heightened Def Con from 3.20993e-07 ++++++++++++++++++++++++++++++to 3.2104e-07
Heightened Def Con from 3.2104e-07 +++++++++++++to 3.2104e-07
Heightened Def Con from 3.2104e-07 +++++to 3.2104e-07
Heightened Def Con from 3.2104e-07 +++++++to 3.2104e-07
Heightened Def Con from 3.2104e-07 +++++to 3.2104e-07
Heightened Def Con from 3.2104e-07 +++to 3.2104e-07
Heightened Def Con from 3.2104e-07 ++++++++++to 3.2104e-07
Heightened Def Con from 3.2104e-07 +++++++++++++++++++++to 3.2104e-07
Heightened Def Con from 3.2104e-07 ++++++++++++++++to 3.2104e-07
Heightened Def Con from 3.2104e-07 +++++++++++++++to 3.21041e-07
Heightened Def Con from 3.21041e-07 +++++++++++++++++++++++++to 3.21041e-07
Heightened Def Con from 3.21041e-07 ++++++++++to 3.21041e-07
Heightened Def Con from 3.21041e-07 to 3.21041e-07
Heightened Def Con from 3.21041e-07 +to 3.21041e-07
Heightened Def Con from 3.21041e-07 ++++++++++++to 3.21041e-07
Heightened Def Con from 3.21041e-07 +to 3.21042e-07
Heightened Def Con from 3.21042e-07 +++to 3.21042e-07
Heightened Def Con from 3.21042e-07 +++++++++++++++++++++++++to 3.21042e-07
Heightened Def Con from 3.21042e-07 +++++++to 3.21042e-07
Heightened Def Con from 3.21042e-07 ++to 3.21042e-07
Heightened Def Con from 3.21042e-07 ++to 3.21042e-07
Heightened Def Con from 3.21042e-07 +++to 3.21042e-07
Heightened Def Con from 3.21043e-07 to 3.21043e-07
Heightened Def Con from 3.21043e-07 ++++++++++++++++++++to 3.21043e-07
Heightened Def Con from 3.21043e-07 +++++++to 3.21043e-07
Heightened Def Con from 3.21043e-07 +to 3.21043e-07
Heightened Def Con from 3.21043e-07 to 3.21043e-07
Heightened Def Con from 3.21043e-07 +to 3.21043e-07
Heightened Def Con from 3.21043e-07 ++to 3.21044e-07
Heightened Def Con from 3.21044e-07 ++++++++to 3.21044e-07
Heightened Def Con from 3.21044e-07 ++to 3.21044e-07
Heightened Def Con from 3.21044e-07 to 3.21045e-07
Heightened Def Con from 3.21045e-07 ++++to 3.21045e-07
Heightened Def Con from 3.21045e-07 +to 3.21045e-07
Heightened Def Con from 3.21045e-07 +to 3.21045e-07
Heightened Def Con from 3.21045e-07 ++to 3.21046e-07
Heightened Def Con from 3.21046e-07 +++to 3.21046e-07
Heightened Def Con from 3.21046e-07 +++++to 3.21046e-07
Heightened Def Con from 3.21046e-07 ++++to 3.21046e-07
Heightened Def Con from 3.21046e-07 to 3.21046e-07
Heightened Def Con from 3.21047e-07 ++to 3.21047e-07
Heightened Def Con from 3.2105e-07 ++to 3.2105e-07
Heightened Def Con from 3.2105e-07 ++++++to 3.2105e-07
Heightened Def Con from 3.2105e-07 +++++++++++++to 3.2105e-07
Heightened Def Con from 3.2105e-07 ++++++++to 3.2105e-07
Heightened Def Con from 3.2105e-07 +++++++++to 3.2105e-07
Heightened Def Con from 3.2105e-07 ++++++++to 3.2105e-07
Heightened Def Con from 3.2105e-07 +++++++++++++++++++to 3.2105e-07
Heightened Def Con from 3.2105e-07 +++++++++++++to 3.2105e-07
Heightened Def Con from 3.2105e-07 ++to 3.21051e-07
Heightened Def Con from 3.21051e-07 ++to 3.21051e-07
Heightened Def Con from 3.21051e-07 ++++++++++++++to 3.21051e-07
Heightened Def Con from 3.21051e-07 +++++++to 3.21051e-07
Heightened Def Con from 3.21051e-07 +++++++++++++++to 3.21051e-07
Heightened Def Con from 3.21051e-07 +++++++++++++++++++++++++++++++to 3.21098e-07
Heightened Def Con from 3.21098e-07 ++++++++++to 3.21098e-07
Heightened Def Con from 3.21098e-07 ++++++++++++++++++++++++to 3.21098e-07
Heightened Def Con from 3.21098e-07 +++++++++++++++++to 3.21098e-07
Heightened Def Con from 3.21098e-07 +++++++to 3.21098e-07
Heightened Def Con from 3.21098e-07 +++++++++++++++++++++++++++++++to 3.21145e-07
Heightened Def Con from 3.21145e-07 to 3.21145e-07
Heightened Def Con from 3.21145e-07 +++++++++++++++++++++++++++++++to 3.21161e-07
Heightened Def Con from 3.21161e-07 +++++++++++++++++++++++++++++++to 3.21163e-07
Heightened Def Con from 3.21163e-07 ++++++to 3.21163e-07
Heightened Def Con from 3.21163e-07 +++++++++++++++++++++++++++++++to 3.21165e-07
Heightened Def Con from 3.21165e-07 ++++++++++++++++++++++++++to 3.21165e-07
Heightened Def Con from 3.21165e-07 +++++++++++++++to 3.21165e-07
Heightened Def Con from 3.21165e-07 +++++++++++++++++++++++++++++to 3.21165e-07
Heightened Def Con from 3.21165e-07 +++++++++++++++++++++++++++++++to 3.21165e-07
Heightened Def Con from 3.21165e-07 +++++++++++++++++++++to 3.21165e-07
Heightened Def Con from 3.21165e-07 +++++++++++++++++++++++++++++to 3.21165e-07
Heightened Def Con from 3.21165e-07 ++++++++++++++++++++++++++++++++to 3.21306e-07
Heightened Def Con from 3.21306e-07 ++++++++++++++++++++++++++++++++to 3.21337e-07
Heightened Def Con from 3.21337e-07 ++++++++++++++to 3.21337e-07
Heightened Def Con from 3.21337e-07 ++++++++++++++++++++++++++++++++to 3.21353e-07
Heightened Def Con from 3.21353e-07 ++++++++++++++++++++++++++++++++to 3.21368e-07
Heightened Def Con from 3.21368e-07 ++++++++++++++++to 3.21368e-07
Heightened Def Con from 3.21368e-07 ++++++++++++to 3.21368e-07
Heightened Def Con from 3.21368e-07 ++++++++++++++++++++++++++++++++to 3.2137e-07
Heightened Def Con from 3.2137e-07 ++++++++++++++++++++++++++++++to 3.2137e-07
Heightened Def Con from 3.2137e-07 +++++++++++++++++++++to 3.2137e-07
Heightened Def Con from 3.2137e-07 ++to 3.2137e-07
Heightened Def Con from 3.2137e-07 ++++++++++++++++++++++++++++++++to 3.21372e-07
Heightened Def Con from 3.21372e-07 ++++++++++++++++++++++++++++++++to 3.21374e-07
Heightened Def Con from 3.21374e-07 ++++++++++++++++++++++++++++++++to 3.21374e-07
Heightened Def Con from 3.21374e-07 ++++++++to 3.21374e-07
Heightened Def Con from 3.21374e-07 +++++++++++++to 3.21374e-07
Heightened Def Con from 3.21374e-07 +to 3.21374e-07
Heightened Def Con from 3.21374e-07 ++++++++++++++++++++++++to 3.21374e-07
Heightened Def Con from 3.21374e-07 +++++to 3.21374e-07
Heightened Def Con from 3.21374e-07 ++++++++++++++++++++++++++++++++to 3.21374e-07
Heightened Def Con from 3.21374e-07 ++++++++++++to 3.21374e-07
Heightened Def Con from 3.21374e-07 ++++++++++++++++++++++++++++++++to 3.21374e-07
Heightened Def Con from 3.21374e-07 ++++++++++++++++++++++++++++++++to 3.21375e-07
Heightened Def Con from 3.21375e-07 ++++++++++++++++++to 3.21375e-07
Heightened Def Con from 3.21375e-07 to 3.21375e-07
Heightened Def Con from 3.21375e-07 ++++++++++++++++++++++++++++++++to 3.21375e-07
Heightened Def Con from 3.21375e-07 ++++++++++++++++++++++++++++++++to 3.21375e-07
Heightened Def Con from 3.21375e-07 ++++++++++++++++++++++++++++++++to 3.21375e-07
Heightened Def Con from 3.21375e-07 +++++++++++++++++++++++++++++++++to 3.21641e-07
Heightened Def Con from 3.21641e-07 +++++++++++++++++++++++++++++++++to 3.21656e-07
Heightened Def Con from 3.21656e-07 ++++to 3.21656e-07
Heightened Def Con from 3.21656e-07 +++++++++++++++++++++++++++++++++to 3.21672e-07
Heightened Def Con from 3.21672e-07 +++++++++++++++++++++++++++++++++to 3.21688e-07
Heightened Def Con from 3.21688e-07 ++++++++++++++to 3.21688e-07
Heightened Def Con from 3.21688e-07 +++++++++++++++++++++++++++++++++to 3.21703e-07
Heightened Def Con from 3.21703e-07 ++++++to 3.21703e-07
Heightened Def Con from 3.21703e-07 +++++++++++++++++++++++++++++++++to 3.21719e-07
Heightened Def Con from 3.21719e-07 +++++++++++++++++++++++++++++++++to 3.21734e-07
Heightened Def Con from 3.21734e-07 +++++++++++++++++++++++++++++++++to 3.21734e-07
Heightened Def Con from 3.21734e-07 ++++++++to 3.21734e-07
Heightened Def Con from 3.21734e-07 +++++++++++++++++++++++++++++++++to 3.21736e-07
Heightened Def Con from 3.21736e-07 +++++++++++++++++++++++++++++++++to 3.21738e-07
Heightened Def Con from 3.21738e-07 +++++++++++++++++++++++++++++++++to 3.2174e-07
Heightened Def Con from 3.2174e-07 +++++++++++++++++++++++++++++to 3.2174e-07
Heightened Def Con from 3.2174e-07 ++++++++++++++++++++++++++++++++++to 3.22256e-07
Heightened Def Con from 3.22256e-07 ++++++++++++++++++++++++++++++++++to 3.22272e-07
Heightened Def Con from 3.22272e-07 ++++++++++++++++++++++++++++++++++to 3.22287e-07
Heightened Def Con from 3.22287e-07 ++++++++++++++++++++++++++++++++++to 3.22303e-07
Heightened Def Con from 3.22303e-07 ++++++++++++++++++++++++++++++++++to 3.22318e-07
Heightened Def Con from 3.22318e-07 ++++++++++++++++++++++++++++++++++to 3.22334e-07
Heightened Def Con from 3.22334e-07 ++++++++++++++++++++++++++++++++++to 3.2235e-07
Heightened Def Con from 3.2235e-07 ++++++++++++++++++++++++++++++++++to 3.22352e-07
Heightened Def Con from 3.22352e-07 ++++++++++++++++++++++++++++++++++to 3.22352e-07
Heightened Def Con from 3.22352e-07 ++++++++++++++++++++++++++++++++++to 3.22352e-07
Heightened Def Con from 3.22352e-07 ++++++++++++++++++++++++++++++++++to 3.22352e-07
Heightened Def Con from 3.22352e-07 ++++++++++++++++++++++++++++++++++to 3.22353e-07
Heightened Def Con from 3.22353e-07 ++++++++++++++++++++++++++++++++++++++to 3.23478e-07
Heightened Def Con from 3.23478e-07 ++++++++++++++++++++++++++++++++++++++to 3.28478e-07
Heightened Def Con from 3.28478e-07 ++++++++++++++++++++++++++++++++++++++to 3.28603e-07
Heightened Def Con from 3.28603e-07 ++++++++++++++++++++++++++++++++++++++to 3.28728e-07
Heightened Def Con from 3.28728e-07 to 3.28728e-07
Heightened Def Con from 3.28728e-07 ++++++++++++++++++++++++++++++++++++++to 3.28853e-07
Heightened Def Con from 3.28853e-07 ++++++++++++++++++++++++++++++++++++++to 3.28978e-07
Heightened Def Con from 3.28978e-07 ++++++++++++++++++++++++++++++++++++++to 3.29103e-07
Heightened Def Con from 3.29103e-07 ++++++++++++++++++++++++++++++++++++++to 3.29228e-07
Heightened Def Con from 3.29228e-07 ++++++++++++++++++++++++++++++++++++++to 3.29353e-07
Heightened Def Con from 3.29353e-07 ++++++++++++++++++++++++++++++++++++++to 3.29478e-07
Heightened Def Con from 3.29478e-07 ++++++++++++++++++++++++++++++++++++++to 3.29603e-07
Heightened Def Con from 3.29603e-07 ++++++++++++++++++++++++++++++++++++++to 3.29728e-07
Heightened Def Con from 3.29728e-07 ++++++++++++++++++++++++++++++++++++++to 3.29853e-07
Heightened Def Con from 3.29853e-07 ++++++++++++++++++++++++++++++++++++++to 3.29978e-07
Heightened Def Con from 3.29978e-07 ++++++++++++++++++++++++++++++++++++++to 3.30103e-07
Heightened Def Con from 3.30103e-07 ++++++++++++++++++++++++++++++++++++++to 3.31228e-07
Heightened Def Con from 3.31228e-07 ++++++++++++++++++++++++++++++++++++++to 3.31353e-07
Heightened Def Con from 3.31353e-07 +++++++++++++++++++++++++++++++++++++to 3.31355e-07
Heightened Def Con from 3.31355e-07 +++++++++++++++++++++++++++++++++++++++to 3.3173e-07
Heightened Def Con from 3.3173e-07 ++++++++++++++++++++++++++++++++++++++to 3.32105e-07
Heightened Def Con from 3.32105e-07 ++++++++++++++++++++++++++++++++++++++to 3.3223e-07
Heightened Def Con from 3.3223e-07 ++++++++++++++++++++++++++++++++++++++to 3.32355e-07
Heightened Def Con from 3.32355e-07 ++++++++++++++++++++++++++++++++++++++to 3.3248e-07
Heightened Def Con from 3.3248e-07 ++++++++++++++++++++++++++++++++++++++to 3.32605e-07
Heightened Def Con from 3.32605e-07 ++++++++++++++++++++++++++++++++++++++to 3.3273e-07
Heightened Def Con from 3.3273e-07 ++++++++++++++++++++++++++++++++++++++to 3.32855e-07
Heightened Def Con from 3.32855e-07 ++++++++++++++++++++++++++++++++++++++to 3.3298e-07
Heightened Def Con from 3.3298e-07 ++++++++++++++++++++++++++++++++++++++to 3.33105e-07
Heightened Def Con from 3.33105e-07 ++++++++++++++++++++++++++++++++++++++to 3.3323e-07
Heightened Def Con from 3.3323e-07 ++++++++++++++++++++++++++++++++++++++to 3.33355e-07
Heightened Def Con from 3.33355e-07 ++++++++++++++++++++++++++++++++++++++to 3.3348e-07
Heightened Def Con from 3.3348e-07 ++++++++++++++++++++++++++++++++++++++to 3.33605e-07
Heightened Def Con from 3.33605e-07 ++++++++++++++++++++++++++++++++++++++to 3.3373e-07
Heightened Def Con from 3.3373e-07 ++++++++++++++++++++++++++++++++++++++to 3.33855e-07
Heightened Def Con from 3.33855e-07 ++++++++++++++++++++++++++++++++++++++to 3.3398e-07
Heightened Def Con from 3.3398e-07 ++++++++++++++++++++++++++++++++++++++to 3.34105e-07
Heightened Def Con from 3.34105e-07 ++++++++++++++++++++++++++++++++++++++to 3.3423e-07
Heightened Def Con from 3.3423e-07 ++++++++++++++++++++++++++++++++++++++to 3.34355e-07
Heightened Def Con from 3.34355e-07 ++++++++++++++++++++++++++++++++++++++to 3.3448e-07
Heightened Def Con from 3.3448e-07 ++++++++++++++++++++++++++++++++++++++to 3.34605e-07
Heightened Def Con from 3.34605e-07 ++++++++++++++++++++++++++++++++++++++to 3.3473e-07
Heightened Def Con from 3.3473e-07 ++++++++++++++++++++++++++++++++++++++to 3.3498e-07
Heightened Def Con from 3.3498e-07 +++++++++++++++++++++++++++++++++++++++to 3.35355e-07
Heightened Def Con from 3.35355e-07 ++++++++++++++++++++++++++++++++++++++to 3.3573e-07
Heightened Def Con from 3.3573e-07 ++++++++++++++++++++++++++++++++++++++to 3.3598e-07
Heightened Def Con from 3.3598e-07 ++++++++++++++++++++++++++++++++++++++to 3.3623e-07
Heightened Def Con from 3.3623e-07 ++++++++++++++++++++++++++++++++++++++to 3.3648e-07
Heightened Def Con from 3.3648e-07 ++++++++++++++++++++++++++++++++++++++to 3.36855e-07
Heightened Def Con from 3.36855e-07 ++++++++++++++++++++++++++++++++++++++to 3.3723e-07
Heightened Def Con from 3.3723e-07 ++++++++++++++++++++++++++++++++++++++to 3.37605e-07
Heightened Def Con from 3.37605e-07 ++++++++++++++++++++++++++++++++++++++to 3.3798e-07
Heightened Def Con from 3.3798e-07 ++++++++++++++++++++++++++++++++++++++to 3.38355e-07
Heightened Def Con from 3.38355e-07 ++++++++++++++++++++++++++++++++++++++to 3.3873e-07
Heightened Def Con from 3.3873e-07 ++++++++++++++++++++++++++++++++++++++to 3.39105e-07
Heightened Def Con from 3.39105e-07 ++++++++++++++++++++++++++++++++++++++to 3.3948e-07
Heightened Def Con from 3.3948e-07 ++++++++++++++++++++++++++++++++++++++to 3.39855e-07
Heightened Def Con from 3.39855e-07 ++++++++++++++++++++++++++++++++++++++to 3.4023e-07
Heightened Def Con from 3.4023e-07 +++++++++++++++++++++++++++++++++++++++to 3.40605e-07
Heightened Def Con from 3.40605e-07 ++++++++++++++++++++++++++++++++++++++to 3.4098e-07
Heightened Def Con from 3.4098e-07 ++++++++++++++++++++++++++++++++++++++to 3.41355e-07
Heightened Def Con from 3.41355e-07 ++++++++++++++++++++++++++++++++++++++to 3.41605e-07
Heightened Def Con from 3.41605e-07 ++++++++++++++++++++++++++++++++++++++to 3.41855e-07
Heightened Def Con from 3.41855e-07 ++++++++++++++++++++++++++++++++++++++to 3.42105e-07
Heightened Def Con from 3.42105e-07 ++++++++++++++++++++++++++++++++++++++to 3.42355e-07
Heightened Def Con from 3.42355e-07 ++++++++++++++++++++++++++++++++++++++to 3.42605e-07
Heightened Def Con from 3.42605e-07 ++++++++++++++++++++++++++++++++++++++to 3.42855e-07
Heightened Def Con from 3.42855e-07 ++++++++++++++++++++++++++++++++++++++to 3.43105e-07
Heightened Def Con from 3.43105e-07 ++++++++++++++++++++++++++++++++++++++to 3.4323e-07
Heightened Def Con from 3.4323e-07 ++++++++++++++++++++++++++++++++++++++to 3.43355e-07
Heightened Def Con from 3.43355e-07 ++++++++++++++++++++++++++++++++++++++to 3.4348e-07
Heightened Def Con from 3.4348e-07 ++++++++++++++++++++++++++++++++++++++to 3.43605e-07
Heightened Def Con from 3.43605e-07 ++++++++++++++++++++++++++++++++++++++to 3.4373e-07
Heightened Def Con from 3.4373e-07 ++++++++++++++++++++++++++++++++++++++to 3.43855e-07
Heightened Def Con from 3.43855e-07 ++++++++++++++++++++++++++++++++++++++to 3.4387e-07
Heightened Def Con from 3.4387e-07 ++++++++++++++++++++++++++++++++++++++to 3.43995e-07
Heightened Def Con from 3.43995e-07 ++++++++++++++++++++++++++++++++++++++to 3.44247e-07
Heightened Def Con from 3.44247e-07 ++++++++++++++++++++++++++++++++++++++to 3.44372e-07
Heightened Def Con from 3.44372e-07 ++++++++++++++++++++++++++++++++++++++to 3.44497e-07
Heightened Def Con from 3.44497e-07 ++++++++++++++++++++++++++++++++++++++to 3.44622e-07
Heightened Def Con from 3.44622e-07 ++++++++++++++++++++++++++++++++++++++to 3.44747e-07
Heightened Def Con from 3.44747e-07 ++++++++++++++++++++++++++++++++++++++to 3.44872e-07
Heightened Def Con from 3.44872e-07 ++++++++++++++++++++++++++++++++++++++to 3.44997e-07
Heightened Def Con from 3.44997e-07 ++++++++++++++++++++++++++++++++++++++to 3.45122e-07
Heightened Def Con from 3.45122e-07 ++++++++++++++++++++++++++++++++++++++to 3.45247e-07
Heightened Def Con from 3.45247e-07 ++++++++++++++++++++++++++++++++++++++to 3.45372e-07
Heightened Def Con from 3.45372e-07 ++++++++++++++++++++++++++++++++++++++to 3.45497e-07
Heightened Def Con from 3.45497e-07 ++++++++++++++++++++++++++++++++++++++to 3.45622e-07
Heightened Def Con from 3.45622e-07 ++++++++++++++++++++++++++++++++++++++to 3.45747e-07
Heightened Def Con from 3.45747e-07 ++++++++++++++++++++++++++++++++++++++to 3.45872e-07
Heightened Def Con from 3.45872e-07 ++++++++++++++++++++++++++++++++++++++to 3.45997e-07
Heightened Def Con from 3.45997e-07 ++++++++++++++++++++++++++++++++++++++to 3.46122e-07
Heightened Def Con from 3.46122e-07 ++++++++++++++++++++++++++++++++++++++to 3.46247e-07
Heightened Def Con from 3.46247e-07 ++++++++++++++++++++++++++++++++++++++to 3.46372e-07
Heightened Def Con from 3.46372e-07 ++++++++++++++++++++++++++++++++++++++to 3.46497e-07
Heightened Def Con from 3.46497e-07 ++++++++++++++++++++++++++++++++++++++to 3.46622e-07
Heightened Def Con from 3.46622e-07 +++++++++++++++++++++++++++++++++++++++to 3.47247e-07
Heightened Def Con from 3.47247e-07 ++++++++++++++++++++++++++++++++++++++to 3.47622e-07
Heightened Def Con from 3.47622e-07 ++++++++++++++++++++++++++++++++++++++to 3.47997e-07
Heightened Def Con from 3.47997e-07 ++++++++++++++++++++++++++++++++++++++to 3.48247e-07
Heightened Def Con from 3.48247e-07 ++++++++++++++++++++++++++++++++++++++to 3.48497e-07
Heightened Def Con from 3.48497e-07 ++++++++++++++++++++++++++++++++++++++to 3.48622e-07
Heightened Def Con from 3.48622e-07 ++++++++++++++++++++++++++++++++++++++to 3.48747e-07
Heightened Def Con from 3.48747e-07 ++++++++++++++++++++++++++++++++++++++to 3.48872e-07
Heightened Def Con from 3.48872e-07 ++++++++++++++++++++++++++++++++++++++to 3.48997e-07
Heightened Def Con from 3.48997e-07 ++++++++++++++++++++++++++++++++++++++to 3.49122e-07
Heightened Def Con from 3.49122e-07 ++++++++++++++++++++++++++++++++++++++to 3.49247e-07
Heightened Def Con from 3.49247e-07 ++++++++++++++++++++++++++++++++++++++to 3.49497e-07
Heightened Def Con from 3.49497e-07 ++++++++++++++++++++++++++++++++++++++to 3.49747e-07
Heightened Def Con from 3.49747e-07 ++++++++++++++++++++++++++++++++++++++to 3.49997e-07
Heightened Def Con from 3.49997e-07 ++++++++++++++++++++++++++++++++++++++to 3.50247e-07
Heightened Def Con from 3.50247e-07 ++++++++++++++++++++++++++++++++++++++to 3.50497e-07
Heightened Def Con from 3.50497e-07 ++++++++++++++++++++++++++++++++++++++to 3.50747e-07
Heightened Def Con from 3.50747e-07 ++++++++++++++++++++++++++++++++++++++to 3.51122e-07
Heightened Def Con from 3.51122e-07 ++++++++++++++++++++++++++++++++++++++to 3.51497e-07
Heightened Def Con from 3.51497e-07 ++++++++++++++++++++++++++++++++++++++to 3.51872e-07
Heightened Def Con from 3.51872e-07 ++++++++++++++++++++++++++++++++++++++to 3.51997e-07
Heightened Def Con from 3.51997e-07 ++++++++++++++++++++++++++++++++++++++to 3.52372e-07
Heightened Def Con from 3.52372e-07 ++++++++++++++++++++++++++++++++++++++to 3.52747e-07
Heightened Def Con from 3.52747e-07 ++++++++++++++++++++++++++++++++++++++to 3.53122e-07
Heightened Def Con from 3.53122e-07 ++++++++++++++++++++++++++++++++++++++to 3.53497e-07
Heightened Def Con from 3.53497e-07 ++++++++++++++++++++++++++++++++++++++to 3.53872e-07
Heightened Def Con from 3.53872e-07 ++++++++++++++++++++++++++++++++++++++to 3.54247e-07
Heightened Def Con from 3.54247e-07 ++++++++++++++++++++++++++++++++++++++to 3.54622e-07
Heightened Def Con from 3.54622e-07 ++++++++++++++++++++++++++++++++++++++to 3.54997e-07
Heightened Def Con from 3.54997e-07 ++++++++++++++++++++++++++++++++++++++to 3.55247e-07
Heightened Def Con from 3.55247e-07 ++++++++++++++++++++++++++++++++++++++to 3.55497e-07
Heightened Def Con from 3.55497e-07 ++++++++++++++++++++++++++++++++++++++to 3.55747e-07
Heightened Def Con from 3.55747e-07 ++++++++++++++++++++++++++++++++++++++to 3.55997e-07
Heightened Def Con from 3.55997e-07 ++++++++++++++++++++++++++++++++++++++to 3.56247e-07
Heightened Def Con from 3.56247e-07 ++++++++++++++++++++++++++++++++++++++to 3.56497e-07
Heightened Def Con from 3.56497e-07 ++++++++++++++++++++++++++++++++++++++to 3.56747e-07
Heightened Def Con from 3.56747e-07 ++++++++++++++++++++++++++++++++++++++to 3.56997e-07
Heightened Def Con from 3.56997e-07 ++++++++++++++++++++++++++++++++++++++to 3.57247e-07
Heightened Def Con from 3.57247e-07 ++++++++++++++++++++++++++++++++++++++to 3.57372e-07
Heightened Def Con from 3.57372e-07 ++++++++++++++++++++++++++++++++++++++to 3.57497e-07
Heightened Def Con from 3.57497e-07 ++++++++++++++++++++++++++++++++++++++to 3.57622e-07
Heightened Def Con from 3.57622e-07 ++++++++++++++++++++++++++++++++++++++to 3.57747e-07
Heightened Def Con from 3.57747e-07 ++++++++++++++++++++++++++++++++++++++to 3.57872e-07
Heightened Def Con from 3.57872e-07 +++++++++++++++++++++++++++++++++++++to 3.57872e-07
Heightened Def Con from 3.57872e-07 ++++++++++++++++++++++++++++++++++++++to 3.57997e-07
Heightened Def Con from 3.57997e-07 ++++++++++++++++++++++++++++++++++++++to 3.58122e-07
Heightened Def Con from 3.58122e-07 ++++++++++++++++++++++++++++++++++++++to 3.58247e-07
Heightened Def Con from 3.58247e-07 ++++++++++++++++++++++++++++++++++++++to 3.58372e-07
Heightened Def Con from 3.58372e-07 ++++++++++++++++++++++++++++++++++++++to 3.58497e-07
Heightened Def Con from 3.58497e-07 ++++++++++++++++++++++++++++++++++++++to 3.58622e-07
Heightened Def Con from 3.58622e-07 ++++++++++++++++++++++++++++++++++++++to 3.58747e-07
Heightened Def Con from 3.58747e-07 ++++++++++++++++++++++++++++++++++++++to 3.58872e-07
Heightened Def Con from 3.58872e-07 ++++++++++++++++++++++++++++++++++++++to 3.58997e-07
Heightened Def Con from 3.58997e-07 +++++++++++++++++++++++++++++++++++++++to 3.59372e-07
Heightened Def Con from 3.59372e-07 ++++++++++++++++++++++++++++++++++++++to 3.59747e-07
Heightened Def Con from 3.59747e-07 ++++++++++++++++++++++++++++++++++++++to 3.60122e-07
Heightened Def Con from 3.60122e-07 ++++++++++++++++++++++++++++++++++++++to 3.60372e-07
Heightened Def Con from 3.60372e-07 ++++++++++++++++++++++++++++++++++++++to 3.60497e-07
Heightened Def Con from 3.60497e-07 ++++++++++++++++++++++++++++++++++++++to 3.60622e-07
Heightened Def Con from 3.60622e-07 ++++++++++++++++++++++++++++++++++++++to 3.60747e-07
Heightened Def Con from 3.60747e-07 ++++++++++++++++++++++++++++++++++++++to 3.60872e-07
Heightened Def Con from 3.60872e-07 ++++++++++++++++++++++++++++++++++++++to 3.60997e-07
Heightened Def Con from 3.60997e-07 ++++++++++++++++++++++++++++++++++++++to 3.61122e-07
Heightened Def Con from 3.61122e-07 ++++++++++++++++++++++++++++++++++++++to 3.61497e-07
Heightened Def Con from 3.61497e-07 ++++++++++++++++++++++++++++++++++++++to 3.61872e-07
Heightened Def Con from 3.61872e-07 ++++++++++++++++++++++++++++++++++++++to 3.62247e-07
Heightened Def Con from 3.62247e-07 ++++++++++++++++++++++++++++++++++++++to 3.62624e-07
Heightened Def Con from 3.62624e-07 ++++++++++++++++++++++++++++++++++++++to 3.62749e-07
Heightened Def Con from 3.62749e-07 ++++++++++++++++++++++++++++++++++++++to 3.62874e-07
Heightened Def Con from 3.62874e-07 +++++++++++++++++++++++++++++++++++++++to 3.63249e-07
Heightened Def Con from 3.63249e-07 ++++++++++++++++++++++++++++++++++++++to 3.63624e-07
Heightened Def Con from 3.63624e-07 ++++++++++++++++++++++++++++++++++++++to 3.63999e-07
Heightened Def Con from 3.63999e-07 ++++++++++++++++++++++++++++++++++++++to 3.64124e-07
Heightened Def Con from 3.64124e-07 ++++++++++++++++++++++++++++++++++++++to 3.64249e-07
Heightened Def Con from 3.64249e-07 ++++++++++++++++++++++++++++++++++++++to 3.64374e-07
Heightened Def Con from 3.64374e-07 ++++++++++++++++++++++++++++++++++++++to 3.64499e-07
Heightened Def Con from 3.64499e-07 ++++++++++++++++++++++++++++++++++++++to 3.64624e-07
Heightened Def Con from 3.64624e-07 ++++++++++++++++++++++++++++++++++++++to 3.64749e-07
Heightened Def Con from 3.64749e-07 ++++++++++++++++++++++++++++++++++++++to 3.64874e-07
Heightened Def Con from 3.64874e-07 ++++++++++++++++++++++++++++++++++++++to 3.64999e-07
Heightened Def Con from 3.64999e-07 ++++++++++++++++++++++++++++++++++++++to 3.65124e-07
Heightened Def Con from 3.65124e-07 ++++++++++++++++++++++++++++++++++++++to 3.65249e-07
Heightened Def Con from 3.65249e-07 ++++++++++++++++++++++++++++++++++++++to 3.65374e-07
Heightened Def Con from 3.65374e-07 +++++++++++++++++++++++++++++++++++++++to 3.65749e-07
Heightened Def Con from 3.65749e-07 ++++++++++++++++++++++++++++++++++++++to 3.66124e-07
Heightened Def Con from 3.66124e-07 ++++++++++++++++++++++++++++++++++++++to 3.66499e-07
Heightened Def Con from 3.66499e-07 ++++++++++++++++++++++++++++++++++++++to 3.66624e-07
Heightened Def Con from 3.66624e-07 ++++++++++++++++++++++++++++++++++++++to 3.66626e-07
Heightened Def Con from 3.66626e-07 ++++++++++++++++++++++++++++++++++++++to 3.66751e-07
Heightened Def Con from 3.66751e-07 ++++++++++++++++++++++++++++++++++++++to 3.66876e-07
Heightened Def Con from 3.66876e-07 ++++++++++++++++++++++++++++++++++++++to 3.67001e-07
Heightened Def Con from 3.67001e-07 ++++++++++++++++++++++++++++++++++++++to 3.67126e-07
Heightened Def Con from 3.67126e-07 ++++++++++++++++++++++++++++++++++++++to 3.67251e-07
Heightened Def Con from 3.67251e-07 ++++++++++++++++++++++++++++++++++++++to 3.67376e-07
Heightened Def Con from 3.67376e-07 ++++++++++++++++++++++++++++++++++++++to 3.67501e-07
Heightened Def Con from 3.67501e-07 ++++++++++++++++++++++++++++++++++++++to 3.67626e-07
Heightened Def Con from 3.67626e-07 ++++++++++++++++++++++++++++++++++++++to 3.67751e-07
Heightened Def Con from 3.67751e-07 ++++++++++++++++++++++++++++++++++++++to 3.67876e-07
Heightened Def Con from 3.67876e-07 ++++++++++++++++++++++++++++++++++++++to 3.68001e-07
Heightened Def Con from 3.68001e-07 ++++++++++++++++++++++++++++++++++++++to 3.68126e-07
Heightened Def Con from 3.68126e-07 ++++++++++++++++++++++++++++++++++++++to 3.68251e-07
Heightened Def Con from 3.68251e-07 ++++++++++++++++++++++++++++++++++++++to 3.68376e-07
Heightened Def Con from 3.68376e-07 ++++++++++++++++++++++++++++++++++++++to 3.68501e-07
Heightened Def Con from 3.68501e-07 ++++++++++++++++++++++++++++++++++++++to 3.68626e-07
Heightened Def Con from 3.68626e-07 ++++++++++++++++++++++++++++++++++++++to 3.68751e-07
Heightened Def Con from 3.68751e-07 ++++++++++++++++++++++++++++++++++++++to 3.68876e-07
Heightened Def Con from 3.68876e-07 ++++++++++++++++++++++++++++++++++++++to 3.69001e-07
Heightened Def Con from 3.69001e-07 ++++++++++++++++++++++++++++++++++++++to 3.69126e-07
Heightened Def Con from 3.69126e-07 ++++++++++++++++++++++++++++++++++++++to 3.69251e-07
Heightened Def Con from 3.69251e-07 ++++++++++++++++++++++++++++++++++++++to 3.69376e-07
Heightened Def Con from 3.69376e-07 ++++++++++++++++++++++++++++++++++++++to 3.69501e-07
Heightened Def Con from 3.69501e-07 ++++++++++++++++++++++++++++++++++++++to 3.69626e-07
Heightened Def Con from 3.69626e-07 ++++++++++++++++++++++++++++++++++++++to 3.69751e-07
Heightened Def Con from 3.69751e-07 ++++++++++++++++++++++++++++++++++++++to 3.69767e-07
Heightened Def Con from 3.69767e-07 ++++++++++++++++++++++++++++++++++++++to 3.69892e-07
Heightened Def Con from 3.69892e-07 ++++++++++++++++++++++++++++++++++++++to 3.70017e-07
Heightened Def Con from 3.70017e-07 ++++++++++++++++++++++++++++++++++++++to 3.70142e-07
Heightened Def Con from 3.70142e-07 ++++++++++++++++++++++++++++++++++++++to 3.70267e-07
Heightened Def Con from 3.70267e-07 ++++++++++++++++++++++++++++++++++++++to 3.70392e-07
Heightened Def Con from 3.70392e-07 ++++++++++++++++++++++++++++++++++++++to 3.70517e-07
Heightened Def Con from 3.70517e-07 ++++++++++++++++++++++++++++++++++++++to 3.70642e-07
Heightened Def Con from 3.70642e-07 ++++++++++++++++++++++++++++++++++++++to 3.70767e-07
Heightened Def Con from 3.70767e-07 ++++++++++++++++++++++++++++++++++++++to 3.70892e-07
Heightened Def Con from 3.70892e-07 ++++++++++++++++++++++++++++++++++++++to 3.71017e-07
Heightened Def Con from 3.71017e-07 ++++++++++++++++++++++++++++++++++++++to 3.71142e-07
Heightened Def Con from 3.71142e-07 ++++++++++++++++++++++++++++++++++++++to 3.71267e-07
Heightened Def Con from 3.71267e-07 ++++++++++++++++++++++++++++++++++++++to 3.71642e-07
Heightened Def Con from 3.71642e-07 ++++++++++++++++++++++++++++++++++++++to 3.72017e-07
Heightened Def Con from 3.72017e-07 ++++++++++++++++++++++++++++++++++++++to 3.72392e-07
Heightened Def Con from 3.72392e-07 ++++++++++++++++++++++++++++++++++++++to 3.72642e-07
Heightened Def Con from 3.72642e-07 ++++++++++++++++++++++++++++++++++++++to 3.72767e-07
Heightened Def Con from 3.72767e-07 ++++++++++++++++++++++++++++++++++++++to 3.72892e-07
Heightened Def Con from 3.72892e-07 ++++++++++++++++++++++++++++++++++++++to 3.73017e-07
Heightened Def Con from 3.73017e-07 ++++++++++++++++++++++++++++++++++++++to 3.73142e-07
Heightened Def Con from 3.73142e-07 ++++++++++++++++++++++++++++++++++++++to 3.73394e-07
Heightened Def Con from 3.73394e-07 ++++++++++++++++++++++++++++++++++++++to 3.73519e-07
Heightened Def Con from 3.73519e-07 ++++++++++++++++++++++++++++++++++++++to 3.73644e-07
Heightened Def Con from 3.73644e-07 ++++++++++++++++++++++++++++++++++++++to 3.73769e-07
Heightened Def Con from 3.73769e-07 ++++++++++++++++++++++++++++++++++++++to 3.73894e-07
Heightened Def Con from 3.73894e-07 ++++++++++++++++++++++++++++++++++++++to 3.74019e-07
Heightened Def Con from 3.74019e-07 ++++++++++++++++++++++++++++++++++++++to 3.74144e-07
Heightened Def Con from 3.74144e-07 ++++++++++++++++++++++++++++++++++++++to 3.74269e-07
Heightened Def Con from 3.74269e-07 ++++++++++++++++++++++++++++++++++++++to 3.74394e-07
Heightened Def Con from 3.74394e-07 ++++++++++++++++++++++++++++++++++++++to 3.74396e-07
Heightened Def Con from 3.74396e-07 ++++++++++++++++++++++++++++++++++++++to 3.74521e-07
Heightened Def Con from 3.74521e-07 ++++++++++++++++++++++++++++++++++++++to 3.74646e-07
Heightened Def Con from 3.74646e-07 ++++++++++++++++++++++++++++++++++++++to 3.74771e-07
Heightened Def Con from 3.74771e-07 ++++++++++++++++++++++++++++++++++++++to 3.74896e-07
Heightened Def Con from 3.74896e-07 ++++++++++++++++++++++++++++++++++++++to 3.75021e-07
Heightened Def Con from 3.75021e-07 ++++++++++++++++++++++++++++++++++++++to 3.75146e-07
Heightened Def Con from 3.75146e-07 ++++++++++++++++++++++++++++++++++++++to 3.75271e-07
Heightened Def Con from 3.75271e-07 ++++++++++++++++++++++++++++++++++++++to 3.75396e-07
Heightened Def Con from 3.75396e-07 ++++++++++++++++++++++++++++++++++++++to 3.75521e-07
Heightened Def Con from 3.75521e-07 ++++++++++++++++++++++++++++++++++++++to 3.75646e-07
Heightened Def Con from 3.75646e-07 ++++++++++++++++++++++++++++++++++++++to 3.75648e-07
Heightened Def Con from 3.75648e-07 ++++++++++++++++++++++++++++++++++++++to 3.75898e-07
Heightened Def Con from 3.75898e-07 ++++++++++++++++++++++++++++++++++++++to 3.76023e-07
Heightened Def Con from 3.76023e-07 ++++++++++++++++++++++++++++++++++++++to 3.76148e-07
Heightened Def Con from 3.76148e-07 ++++++++++++++++++++++++++++++++++++++to 3.76273e-07
Heightened Def Con from 3.76273e-07 ++++++++++++++++++++++++++++++++++++++to 3.76398e-07
Heightened Def Con from 3.76398e-07 ++++++++++++++++++++++++++++++++++++++to 3.76523e-07
Heightened Def Con from 3.76523e-07 ++++++++++++++++++++++++++++++++++++++to 3.76648e-07
Heightened Def Con from 3.76648e-07 ++++++++++++++++++++++++++++++++++++++to 3.76773e-07
Heightened Def Con from 3.76773e-07 ++++++++++++++++++++++++++++++++++++++to 3.76898e-07
Heightened Def Con from 3.76898e-07 ++++++++++++++++++++++++++++++++++++++to 3.77023e-07
Heightened Def Con from 3.77023e-07 ++++++++++++++++++++++++++++++++++++++to 3.77148e-07
Heightened Def Con from 3.77148e-07 ++++++++++++++++++++++++++++++++++++++to 3.77273e-07
Heightened Def Con from 3.77273e-07 ++++++++++++++++++++++++++++++++++++++to 3.77398e-07
Heightened Def Con from 3.77398e-07 ++++++++++++++++++++++++++++++++++++++to 3.77523e-07
Heightened Def Con from 3.77523e-07 ++++++++++++++++++++++++++++++++++++++to 3.77648e-07
Heightened Def Con from 3.77648e-07 ++++++++++++++++++++++++++++++++++++++to 3.77773e-07
Heightened Def Con from 3.77773e-07 ++++++++++++++++++++++++++++++++++++++to 3.77898e-07
Heightened Def Con from 3.77898e-07 +++++++++++++++++++++++++++++++++++++++to 3.78273e-07
Heightened Def Con from 3.78273e-07 ++++++++++++++++++++++++++++++++++++++to 3.78773e-07
Heightened Def Con from 3.78773e-07 ++++++++++++++++++++++++++++++++++++++to 3.79148e-07
Heightened Def Con from 3.79148e-07 ++++++++++++++++++++++++++++++++++++++to 3.79523e-07
Heightened Def Con from 3.79523e-07 ++++++++++++++++++++++++++++++++++++++to 3.79898e-07
Heightened Def Con from 3.79898e-07 ++++++++++++++++++++++++++++++++++++++to 3.80273e-07
Heightened Def Con from 3.80273e-07 ++++++++++++++++++++++++++++++++++++++to 3.80648e-07
Heightened Def Con from 3.80648e-07 ++++++++++++++++++++++++++++++++++++++to 3.81023e-07
Heightened Def Con from 3.81023e-07 ++++++++++++++++++++++++++++++++++++++to 3.81398e-07
Heightened Def Con from 3.81398e-07 ++++++++++++++++++++++++++++++++++++++to 3.81523e-07
Heightened Def Con from 3.81523e-07 ++++++++++++++++++++++++++++++++++++++to 3.81648e-07
Heightened Def Con from 3.81648e-07 ++++++++++++++++++++++++++++++++++++++to 3.81773e-07
Heightened Def Con from 3.81773e-07 +++++++++++++++++++++++++++++++++++++++to 3.82148e-07
Heightened Def Con from 3.82148e-07 +++++++++++++++++++++++++++++++++++++++to 3.82523e-07
Heightened Def Con from 3.82523e-07 +++++++++++++++++++++++++++++++++++++to 3.82523e-07
Heightened Def Con from 3.82523e-07 +++++++++++++++++++++++++++++++++++++++to 3.82648e-07
Heightened Def Con from 3.82648e-07 +++++++++++++++++++++++++++++++++++++++to 3.83039e-07
Heightened Def Con from 3.83039e-07 +++++++++++++++++++++++++++++++++++++++to 3.83164e-07
Heightened Def Con from 3.83164e-07 +++++++++++++++++++++++++++++++++++++++to 3.8357e-07
Heightened Def Con from 3.8357e-07 +++++++++++++++++++++++++++++++++++++++to 3.83695e-07
Heightened Def Con from 3.83695e-07 +++++++++++++++++++++++++++++++++++++++to 3.8382e-07
Heightened Def Con from 3.8382e-07 +++++++++++++++++++++++++++++++++++++++to 3.83945e-07
Heightened Def Con from 3.83945e-07 +++++++++++++++++++++++++++++++++++++++to 3.8407e-07
Heightened Def Con from 3.8407e-07 ++++++++++++++++++++++++++++++++++++++to 3.84072e-07
Heightened Def Con from 3.84072e-07 +++++++++++++++++++++++++++++++++++++++to 3.84462e-07
Heightened Def Con from 3.84462e-07 +++++++++++++++++++++++++++++++++++++++to 3.84587e-07
Heightened Def Con from 3.84587e-07 +++++++++++++++++++++++++++++++++++++++to 3.85087e-07
Heightened Def Con from 3.85087e-07 +++++++++++++++++++++++++++++++++++++++to 3.85212e-07
Heightened Def Con from 3.85212e-07 +++++++++++++++++++++++++++++++++++++++to 3.85603e-07
Heightened Def Con from 3.85603e-07 +++++++++++++++++++++++++++++++++++++++to 3.85728e-07
Heightened Def Con from 3.85728e-07 +++++++++++++++++++++++++++++++++++++to 3.85728e-07
Heightened Def Con from 3.85728e-07 ++++++++++++++++++++++++++++++++++to 3.85728e-07
Heightened Def Con from 3.85728e-07 +++++++++++++++++++++++++++++++++++++++to 3.85853e-07
Heightened Def Con from 3.85853e-07 +++++++++++++++++++++++++++++++++++++++to 3.85978e-07
Heightened Def Con from 3.85978e-07 +++++++++++++++++++++++++++++++++++++++to 3.86103e-07
Heightened Def Con from 3.86103e-07 +++++++++++++++++++++++++++++++++++++++to 3.86228e-07
Heightened Def Con from 3.86228e-07 +++++++++++++++++++++++++++++++++++++++to 3.86353e-07
Heightened Def Con from 3.86353e-07 +++++++++++++++++++++++++++++++++++++++to 3.86478e-07
Heightened Def Con from 3.86478e-07 +++++++++++++++++++++++++++++++++++++++to 3.86603e-07
Heightened Def Con from 3.86603e-07 ++++++++++++++++++++++++++++++++++++++to 3.86605e-07
Heightened Def Con from 3.86605e-07 +++++++++++++++++++++++++++++++++++++++to 3.8673e-07
Heightened Def Con from 3.8673e-07 +++++++++++++++++++++++++++++++++++++++to 3.86855e-07
Heightened Def Con from 3.86855e-07 +++++++++++++++++++++++++++++++++++++++to 3.8698e-07
Heightened Def Con from 3.8698e-07 +++++++++++++++++++++++++++++++++++++++to 3.87105e-07
Heightened Def Con from 3.87105e-07 +++++++++++++++++++++++++++++++++++++++to 3.8723e-07
Heightened Def Con from 3.8723e-07 +++++++++++++++++++++++++++++++++++++++to 3.87355e-07
Heightened Def Con from 3.87355e-07 ++++++++++++++++++++++++++++++++++++++to 3.87388e-07
Heightened Def Con from 3.87388e-07 +to 3.87388e-07
Heightened Def Con from 3.87388e-07 +++++++++++++++++++++++++++++++++++++++to 3.87763e-07
Heightened Def Con from 3.87763e-07 ++++++++++++++++++++++++++++++++++++++to 3.88138e-07
Heightened Def Con from 3.88138e-07 ++++++++++++++++++++++++++++++++++++++to 3.88388e-07
Heightened Def Con from 3.88388e-07 ++++++++++++++++++++++++++++++++++++++to 3.88513e-07
Heightened Def Con from 3.88513e-07 ++++++++++++++++++++++++++++++++++++++to 3.88638e-07
Heightened Def Con from 3.88638e-07 ++++++++++++++++++++++++++++++++++++++to 3.88763e-07
Heightened Def Con from 3.88763e-07 ++++++++++++++++++++++++++++++++++++++to 3.88888e-07
Heightened Def Con from 3.88888e-07 ++++++++++++++++++++++++++++++++++++++to 3.89013e-07
Heightened Def Con from 3.89013e-07 ++++++++++++++++++++++++++++++++++++++to 3.89138e-07
Heightened Def Con from 3.89138e-07 ++++++++++++++++++++++++++++++++++++++to 3.89263e-07
Heightened Def Con from 3.89263e-07 ++++++++++++++++++++++++++++++++++++++to 3.89388e-07
Heightened Def Con from 3.89388e-07 ++++++++++++++++++++++++++++++++++++++to 3.89513e-07
Heightened Def Con from 3.89513e-07 ++++++++++++++++++++++++++++++++++++++to 3.89638e-07
Heightened Def Con from 3.89638e-07 ++++++++++++++++++++++++++++++++++++++to 3.89763e-07
Heightened Def Con from 3.89763e-07 ++++++++++++++++++++++++++++++++++++++to 3.89888e-07
Heightened Def Con from 3.89888e-07 ++++++++++++++++++++++++++++++++++++++to 3.90013e-07
Heightened Def Con from 3.90013e-07 ++++++++++++++++++++++++++++++++++++++to 3.90138e-07
Heightened Def Con from 3.90138e-07 ++++++++++++++++++++++++++++++++++++++to 3.90263e-07
Heightened Def Con from 3.90263e-07 ++++++++++++++++++++++++++++++++++++++to 3.90388e-07
Heightened Def Con from 3.90388e-07 ++++++++++++++++++++++++++++++++++++++to 3.90513e-07
Heightened Def Con from 3.90513e-07 ++++++++++++++++++++++++++++++++++++++to 3.90638e-07
Heightened Def Con from 3.90638e-07 ++++++++++++++++++++++++++++++++++++++to 3.90763e-07
Heightened Def Con from 3.90763e-07 ++++++++++++++++++++++++++++++++++++++to 3.90888e-07
Heightened Def Con from 3.90888e-07 ++++++++++++++++++++++++++++++++++++++to 3.91013e-07
Heightened Def Con from 3.91013e-07 ++++++++++++++++++++++++++++++++++++++to 3.91138e-07
Heightened Def Con from 3.91138e-07 ++++++++++++++++++++++++++++++++++++++to 3.91263e-07
Heightened Def Con from 3.91263e-07 ++++++++++++++++++++++++++++++++++++++to 3.91388e-07
Heightened Def Con from 3.91388e-07 +++++++++++++++++++++++++++++++++++++++to 3.91763e-07
Heightened Def Con from 3.91763e-07 +++++++++++++++++++++++++++++++++++++++to 3.92138e-07
Heightened Def Con from 3.92138e-07 ++++++++++++++++++++++++++++++++++++++to 3.92513e-07
Heightened Def Con from 3.92513e-07 +++++++++++++++++++++++++++++++++++++++to 3.92888e-07
Heightened Def Con from 3.92888e-07 ++++++++++++++++++++++++++++++++++++++to 3.93263e-07
Heightened Def Con from 3.93263e-07 ++++++++++++++++++++++++++++++++++++++to 3.93513e-07
Heightened Def Con from 3.93513e-07 ++++++++++++++++++++++++++++++++++++++to 3.93638e-07
Heightened Def Con from 3.93638e-07 ++++++++++++++++++++++++++++++++++++++to 3.93763e-07
Heightened Def Con from 3.93763e-07 ++++++++++++++++++++++++++++++++++++++to 3.93888e-07
Heightened Def Con from 3.93888e-07 ++++++++++++++++++++++++++++++++++++++to 3.94013e-07
Heightened Def Con from 3.94013e-07 ++++++++++++++++++++++++++++++++++++++to 3.94138e-07
Heightened Def Con from 3.94138e-07 ++++++++++++++++++++++++++++++++++++++to 3.94263e-07
Heightened Def Con from 3.94263e-07 ++++++++++++++++++++++++++++++++++++++to 3.94388e-07
Heightened Def Con from 3.94388e-07 ++++++++++++++++++++++++++++++++++++++to 3.94513e-07
Heightened Def Con from 3.94513e-07 ++++++++++++++++++++++++++++++++++++++to 3.94638e-07
Heightened Def Con from 3.94638e-07 ++++++++++++++++++++++++++++++++++++++to 3.94763e-07
Heightened Def Con from 3.94763e-07 ++++++++++++++++++++++++++++++++++++++to 3.94888e-07
Heightened Def Con from 3.94888e-07 ++++++++++++++++++++++++++++++++++++++to 3.95013e-07
Heightened Def Con from 3.95013e-07 ++++++++++++++++++++++++++++++++++++++to 3.95138e-07
Heightened Def Con from 3.95138e-07 ++++++++++++++++++++++++++++++++++++++to 3.95263e-07
Heightened Def Con from 3.95263e-07 ++++++++++++++++++++++++++++++++++++++to 3.95388e-07
Heightened Def Con from 3.95388e-07 ++++++++++++++++++++++++++++++++++++++to 3.95513e-07
Heightened Def Con from 3.95513e-07 ++++++++++++++++++++++++++++++++++++++to 3.95638e-07
Heightened Def Con from 3.95638e-07 ++++++++++++++++++++++++++++++++++++++to 3.95763e-07
Heightened Def Con from 3.95763e-07 ++++++++++++++++++++++++++++++++++++++to 3.95888e-07
Heightened Def Con from 3.95888e-07 ++++++++++++++++++++++++++++++++++++++to 3.96013e-07
Heightened Def Con from 3.96013e-07 ++++++++++++++++++++++++++++++++++++++to 3.96138e-07
Heightened Def Con from 3.96138e-07 ++++++++++++++++++++++++++++++++++++++to 3.96263e-07
Heightened Def Con from 3.96263e-07 ++++++++++++++++++++++++++++++++++++++to 3.96388e-07
Heightened Def Con from 3.96388e-07 ++++++++++++++++++++++++++++++++++++++to 3.96513e-07
Heightened Def Con from 3.96513e-07 ++++++++++++++++++++++++++++++++++++++to 3.96638e-07
Heightened Def Con from 3.96638e-07 ++++++++++++++++++++++++++++++++++++++to 3.96763e-07
Heightened Def Con from 3.96763e-07 ++++++++++++++++++++++++++++++++++++++to 3.96888e-07
Heightened Def Con from 3.96888e-07 ++++++++++++++++++++++++++++++++++++++to 3.97013e-07
Heightened Def Con from 3.97013e-07 ++++++++++++++++++++++++++++++++++++++to 3.97138e-07
Heightened Def Con from 3.97138e-07 ++++++++++++++++++++++++++++++++++++++to 3.97263e-07
Heightened Def Con from 3.97263e-07 ++++++++++++++++++++++++++++++++++++++to 3.97388e-07
Heightened Def Con from 3.97388e-07 ++++++++++++++++++++++++++++++++++++++to 3.97513e-07
Heightened Def Con from 3.97513e-07 +++++++++++++++++++++++++++++++++++++to 3.97513e-07
Heightened Def Con from 3.97513e-07 ++++++++++++++++++++++++++++++++++++++to 3.97638e-07
Heightened Def Con from 3.97638e-07 ++++++++++++++++++++++++++++++++++++++to 3.97763e-07
Heightened Def Con from 3.97763e-07 ++++++++++++++++++++++++++++++++++++++to 3.97888e-07
Heightened Def Con from 3.97888e-07 +++++++++++++++++++++++++++++++++++++to 3.9789e-07
Heightened Def Con from 3.9789e-07 ++++++++++++++++++++++++++++++++++++++to 3.98015e-07
Heightened Def Con from 3.98015e-07 ++++++++++++++++++++++++++++++++++++++to 3.9814e-07
Heightened Def Con from 3.9814e-07 ++++++++++++++++++++++++++++++++++++++to 3.98265e-07
Heightened Def Con from 3.98265e-07 ++++++++++++++++++++++++++++++++++++++to 3.9839e-07
Heightened Def Con from 3.9839e-07 ++++++++++++++++++++++++++++++++++++++to 3.98515e-07
Heightened Def Con from 3.98515e-07 ++++++++++++++++++++++++++++++++++++++to 3.9864e-07
Heightened Def Con from 3.9864e-07 ++++++++++++++++++++++++++++++++++++++to 3.98765e-07
Heightened Def Con from 3.98765e-07 ++++++++++++++++++++++++++++++++++++++to 3.9889e-07
Heightened Def Con from 3.9889e-07 ++++++++++++++++++++++++++++++++++++++to 3.99015e-07
Heightened Def Con from 3.99015e-07 ++++++++++++++++++++++++++++++++++++++to 3.9914e-07
Heightened Def Con from 3.9914e-07 ++++++++++++++++++++++++++++++++++++++to 3.99265e-07
Heightened Def Con from 3.99265e-07 ++++++++++++++++++++++++++++++++++++++to 3.9939e-07
Heightened Def Con from 3.9939e-07 ++++++++++++++++++++++++++++++++++++++to 3.99515e-07
Heightened Def Con from 3.99515e-07 ++++++++++++++++++++++++++++++++++++++to 3.9964e-07
Heightened Def Con from 3.9964e-07 +++++++++++++++++++++++++++++++++++++to 3.99642e-07
Heightened Def Con from 3.99642e-07 ++++++++++++++++++++++++++++++++++++++to 3.99767e-07
Heightened Def Con from 3.99767e-07 ++++++++++++++++++++++++++++++++++++++to 3.99892e-07
Heightened Def Con from 3.99892e-07 ++++++++++++++++++++++++++++++++++++++to 4.00017e-07
Heightened Def Con from 4.00017e-07 ++++++++++++++++++++++++++++++++++++++to 4.00142e-07
Heightened Def Con from 4.00142e-07 ++++++++++++++++++++++++++++++++++++++to 4.00267e-07
Heightened Def Con from 4.00267e-07 +++++++++++++++++++++++++++++++++++++to 4.00269e-07
Heightened Def Con from 4.00269e-07 ++++++++++++++++++++++++++++++++++++++to 4.00394e-07
Heightened Def Con from 4.00394e-07 ++++++++++++++++++++++++++++++++++++++to 4.00519e-07
Heightened Def Con from 4.00519e-07 ++++++++++++++++++++++++++++++++++++++to 4.00644e-07
Heightened Def Con from 4.00644e-07 ++++++++++++++++++++++++++++++++++++++to 4.00769e-07
Heightened Def Con from 4.00769e-07 ++++++++++++++++++++++++++++++++++++++to 4.00894e-07
Heightened Def Con from 4.00894e-07 ++++++++++++++++++++++++++++++++++++++to 4.01019e-07
Heightened Def Con from 4.01019e-07 ++++++++++++++++++++++++++++++++++++++to 4.01144e-07
Heightened Def Con from 4.01144e-07 +++++++++++++++++++++++++++++++++++++to 4.01146e-07
Heightened Def Con from 4.01146e-07 ++++++++++++++++++++++++++++++++++++++to 4.01271e-07
Heightened Def Con from 4.01271e-07 ++++++++++++++++++++++++++++++++++++++to 4.01396e-07
Heightened Def Con from 4.01396e-07 ++++++++++++++++++++++++++++++++++++++to 4.01521e-07
Heightened Def Con from 4.01521e-07 ++++++++++++++++++++++++++++++++++++++to 4.01646e-07
Heightened Def Con from 4.01646e-07 ++++++++++++++++++++++++++++++++++++++to 4.01771e-07
Heightened Def Con from 4.01771e-07 +++++++++++++++++++++++++++++++++++++to 4.01771e-07
Heightened Def Con from 4.01771e-07 ++++++++++++++++++++++++++++++++++++++to 4.01896e-07
Heightened Def Con from 4.01896e-07 ++++++++++++++++++++++++++++++++++++++to 4.02021e-07
Heightened Def Con from 4.02021e-07 ++++++++++++++++++++++++++++++++++++++to 4.02146e-07
Heightened Def Con from 4.02146e-07 ++++++++++++++++++++++++++++++++++++++to 4.02271e-07
Heightened Def Con from 4.02271e-07 ++++++++++++++++++++++++++++++++++++++to 4.02396e-07
Heightened Def Con from 4.02396e-07 ++++++++++++++++++++++++++++++++++++++to 4.02521e-07
Heightened Def Con from 4.02521e-07 ++++++++++++++++++++++++++++++++++++++to 4.02646e-07
Heightened Def Con from 4.02646e-07 ++++++++++++++++++++++++++++++++++++++to 4.02771e-07
Heightened Def Con from 4.02771e-07 ++++++++++++++++++++++++++++++++++++++to 4.02896e-07
Heightened Def Con from 4.02896e-07 +++++++++++++++++++++++++++++++++++++to 4.02896e-07
Heightened Def Con from 4.02896e-07 ++++++++++++++++++++++++++++++++++++++to 4.03021e-07
Heightened Def Con from 4.03021e-07 ++++++++++++++++++++++++++++++++++++++to 4.03146e-07
Heightened Def Con from 4.03146e-07 ++++++++++++++++++++++++++++++++++++++to 4.03271e-07
Heightened Def Con from 4.03271e-07 ++++++++++++++++++++++++++++++++++++++to 4.03396e-07
Heightened Def Con from 4.03396e-07 ++++++++++++++++++++++++++++++++++++++to 4.03521e-07
Heightened Def Con from 4.03521e-07 ++++++++++++++++++++++++++++++++++++++to 4.03646e-07
Heightened Def Con from 4.03646e-07 ++++++++++++++++++++++++++++++++++++++to 4.03771e-07
Heightened Def Con from 4.03771e-07 ++++++++++++++++++++++++++++++++++++++to 4.03896e-07
Heightened Def Con from 4.03896e-07 ++++++++++++++++++++++++++++++++++++++to 4.04021e-07
Heightened Def Con from 4.04021e-07 ++++++++++++++++++++++++++++++++++++++to 4.04146e-07
Heightened Def Con from 4.04146e-07 ++++++++++++++++++++++++++++++++++++++to 4.04271e-07
Heightened Def Con from 4.04271e-07 ++++++++++++++++++++++++++++++++++++++to 4.04396e-07
Heightened Def Con from 4.04396e-07 ++++++++++++++++++++++++++++++++++++++to 4.04521e-07
Heightened Def Con from 4.04521e-07 ++++++++++++++++++++++++++++++++++++++to 4.04646e-07
Heightened Def Con from 4.04646e-07 ++++++++++++++++++++++++++++++++++++++to 4.04771e-07
Heightened Def Con from 4.04771e-07 ++++++++++++++++++++++++++++++++++++++to 4.04896e-07
Heightened Def Con from 4.04896e-07 ++++++++++++++++++++++++++++++++++++++to 4.05021e-07
Heightened Def Con from 4.05021e-07 ++++++++++++++++++++++++++++++++++++++to 4.05146e-07
Heightened Def Con from 4.05146e-07 ++++++++++++++++++++++++++++++++++++++to 4.05271e-07
Heightened Def Con from 4.05271e-07 ++++++++++++++++++++++++++++++++++++++to 4.05396e-07
Heightened Def Con from 4.05396e-07 ++++++++++++++++++++++++++++++++++++++to 4.05521e-07
Heightened Def Con from 4.05521e-07 ++++++++++++++++++++++++++++++++++++++to 4.05646e-07
Heightened Def Con from 4.05646e-07 ++++++++++++++++++++++++++++++++++++++to 4.05771e-07
Heightened Def Con from 4.05771e-07 ++++++++++++++++++++++++++++++++++++++to 4.05896e-07
Heightened Def Con from 4.05896e-07 ++++++++++++++++++++++++++++++++++++++to 4.06021e-07
Heightened Def Con from 4.06021e-07 ++++++++++++++++++++++++++++++++++++++to 4.06146e-07
Heightened Def Con from 4.06146e-07 ++++++++++++++++++++++++++++++++++++++to 4.06271e-07
Heightened Def Con from 4.06271e-07 ++++++++++++++++++++++++++++++++++++++to 4.06396e-07
Heightened Def Con from 4.06396e-07 ++++++++++++++++++++++++++++++++++++++to 4.06521e-07
Heightened Def Con from 4.06521e-07 ++++++++++++++++++++++++++++++++++++++to 4.06646e-07
Heightened Def Con from 4.06646e-07 +++++++++++++++++++++++++++++++++++++++to 4.07021e-07
Heightened Def Con from 4.07021e-07 ++++++++++++++++++++++++++++++++++++++to 4.07396e-07
Heightened Def Con from 4.07396e-07 ++++++++++++++++++++++++++++++++++++++to 4.07646e-07
Heightened Def Con from 4.07646e-07 ++++++++++++++++++++++++++++++++++++++to 4.07771e-07
Heightened Def Con from 4.07771e-07 ++++++++++++++++++++++++++++++++++++++to 4.07896e-07
Heightened Def Con from 4.07896e-07 ++++++++++++++++++++++++++++++++++++++to 4.08021e-07
Heightened Def Con from 4.08021e-07 ++++++++++++++++++++++++++++++++++++++to 4.08146e-07
Heightened Def Con from 4.08146e-07 ++++++++++++++++++++++++++++++++++++++to 4.08271e-07
Heightened Def Con from 4.08271e-07 ++++++++++++++++++++++++++++++++++++++to 4.08396e-07
Heightened Def Con from 4.08396e-07 ++++++++++++++++++++++++++++++++++++++to 4.08521e-07
Heightened Def Con from 4.08521e-07 ++++++++++++++++++++++++++++++++++++++to 4.08646e-07
Heightened Def Con from 4.08646e-07 ++++++++++++++++++++++++++++++++++++++to 4.08771e-07
Heightened Def Con from 4.08771e-07 ++++++++++++++++++++++++++++++++++++++to 4.08896e-07
Heightened Def Con from 4.08896e-07 +++++++++++++++++++++++++++++++++++++++to 4.09271e-07
Heightened Def Con from 4.09271e-07 ++++++++++++++++++++++++++++++++++++++to 4.09646e-07
Heightened Def Con from 4.09646e-07 ++++++++++++++++++++++++++++++++++++++to 4.09896e-07
Heightened Def Con from 4.09896e-07 ++++++++++++++++++++++++++++++++++++++to 4.10021e-07
Heightened Def Con from 4.10021e-07 ++++++++++++++++++++++++++++++++++++++to 4.10146e-07
Heightened Def Con from 4.10146e-07 ++++++++++++++++++++++++++++++++++++++to 4.10271e-07
Heightened Def Con from 4.10271e-07 ++++++++++++++++++++++++++++++++++++++to 4.10396e-07
Heightened Def Con from 4.10396e-07 ++++++++++++++++++++++++++++++++++++++to 4.10521e-07
Heightened Def Con from 4.10521e-07 +++++++++++++++++++++++++++++++++++++to 4.10523e-07
Heightened Def Con from 4.10523e-07 ++++++++++++++++++++++++++++++++++++++to 4.10648e-07
Heightened Def Con from 4.10648e-07 ++++++++++++++++++++++++++++++++++++++to 4.10773e-07
Heightened Def Con from 4.10773e-07 ++++++++++++++++++++++++++++++++++++++to 4.10898e-07
Heightened Def Con from 4.10898e-07 ++++++++++++++++++++++++++++++++++++++to 4.11023e-07
Heightened Def Con from 4.11023e-07 ++++++++++++++++++++++++++++++++++++++to 4.11148e-07
Heightened Def Con from 4.11148e-07 ++++++++++++++++++++++++++++++++++++++to 4.11273e-07
Heightened Def Con from 4.11273e-07 ++++++++++++++++++++++++++++++++++++++to 4.11398e-07
Heightened Def Con from 4.11398e-07 ++++++++++++++++++++++++++++++++++++++to 4.11523e-07
Heightened Def Con from 4.11523e-07 ++++++++++++++++++++++++++++++++++++++to 4.11648e-07
Heightened Def Con from 4.11648e-07 ++++++++++++++++++++++++++++++++++++++to 4.11773e-07
Heightened Def Con from 4.11773e-07 ++++++++++++++++++++++++++++++++++++++to 4.11898e-07
Heightened Def Con from 4.11898e-07 ++++++++++++++++++++++++++++++++++++++to 4.12023e-07
Heightened Def Con from 4.12023e-07 ++++++++++++++++++++++++++++++++++++++to 4.12148e-07
Heightened Def Con from 4.12148e-07 ++++++++++++++++++++++++++++++++++++++to 4.12273e-07
Heightened Def Con from 4.12273e-07 ++++++++++++++++++++++++++++++++++++++to 4.12398e-07
Heightened Def Con from 4.12398e-07 +++++++++++++++++++++++++++++++++++++++to 4.12789e-07
Heightened Def Con from 4.12789e-07 ++++++++++++++++++++++++++++++++++++++to 4.13164e-07
Heightened Def Con from 4.13164e-07 ++++++++++++++++++++++++++++++++++++++to 4.13414e-07
Heightened Def Con from 4.13414e-07 ++++++++++++++++++++++++++++++++++++++to 4.13539e-07
Heightened Def Con from 4.13539e-07 ++++++++++++++++++++++++++++++++++++++to 4.13554e-07
Heightened Def Con from 4.13554e-07 ++++++++++++++++++++++++++++++++++++++to 4.13679e-07
Heightened Def Con from 4.13679e-07 ++++++++++++++++++++++++++++++++++++++to 4.13681e-07
Heightened Def Con from 4.13681e-07 ++++++++++++++++++++++++++++++++++++++to 4.13806e-07
Heightened Def Con from 4.13806e-07 ++++++++++++++++++++++++++++++++++++++to 4.13931e-07
Heightened Def Con from 4.13931e-07 ++++++++++++++++++++++++++++++++++++++to 4.14056e-07
Heightened Def Con from 4.14056e-07 ++++++++++++++++++++++++++++++++++++++to 4.14181e-07
Heightened Def Con from 4.14181e-07 +++++++++++++++++++++++++++++++++++++to 4.14183e-07
Heightened Def Con from 4.14183e-07 ++++++++++++++++++++++++++++++++++++++to 4.14308e-07
Heightened Def Con from 4.14308e-07 ++++++++++++++++++++++++++++++++++++++to 4.14433e-07
Heightened Def Con from 4.14433e-07 ++++++++++++++++++++++++++++++++++++++to 4.14558e-07
Heightened Def Con from 4.14558e-07 ++++++++++++++++++++++++++++++++++++++to 4.14683e-07
Heightened Def Con from 4.14683e-07 ++++++++++++++++++++++++++++++++++++++to 4.14808e-07
Heightened Def Con from 4.14808e-07 ++++++++++++++++++++++++++++++++++++++to 4.14933e-07
Heightened Def Con from 4.14933e-07 ++++++++++++++++++++++++++++++++++++++to 4.15324e-07
Heightened Def Con from 4.15324e-07 ++++++++++++++++++++++++++++++++++++++to 4.15449e-07
Heightened Def Con from 4.15449e-07 ++++++++++++++++++++++++++++++++++++++to 4.15574e-07
Heightened Def Con from 4.15574e-07 ++++++++++++++++++++++++++++++++++++++to 4.15699e-07
Heightened Def Con from 4.15699e-07 ++++++++++++++++++++++++++++++++++++++to 4.15824e-07
Heightened Def Con from 4.15824e-07 ++++++++++++++++++++++++++++++++++++++to 4.15839e-07
Heightened Def Con from 4.15839e-07 ++++++++++++++++++++++++++++++++++++++to 4.15964e-07
Heightened Def Con from 4.15964e-07 ++++++++++++++++++++++++++++++++++++++to 4.16089e-07
Heightened Def Con from 4.16089e-07 ++++++++++++++++++++++++++++++++++++++to 4.16214e-07
Heightened Def Con from 4.16214e-07 ++++++++++++++++++++++++++++++++++++++to 4.16339e-07
Heightened Def Con from 4.16339e-07 ++++++++++++++++++++++++++++++++++++++to 4.16464e-07
Heightened Def Con from 4.16464e-07 ++++++++++++++++++++++++++++++++++++++to 4.1648e-07
Heightened Def Con from 4.1648e-07 ++++++++++++++++++++++++++++++++++++++to 4.16605e-07
Heightened Def Con from 4.16605e-07 ++++++++++++++++++++++++++++++++++++++to 4.1673e-07
Heightened Def Con from 4.1673e-07 ++++++++++++++++++++++++++++++++++++++to 4.16855e-07
Heightened Def Con from 4.16855e-07 ++++++++++++++++++++++++++++++++++++++to 4.1698e-07
Heightened Def Con from 4.1698e-07 ++++++++++++++++++++++++++++++++++++++to 4.17371e-07
Heightened Def Con from 4.17371e-07 ++++++++++++++++++++++++++++++++++++++to 4.17761e-07
Heightened Def Con from 4.17761e-07 ++++++++++++++++++++++++++++++++++++++to 4.17886e-07
Heightened Def Con from 4.17886e-07 ++++++++++++++++++++++++++++++++++++++to 4.18277e-07
Heightened Def Con from 4.18277e-07 ++++++++++++++++++++++++++++++++++++++to 4.18402e-07
Heightened Def Con from 4.18402e-07 ++++++++++++++++++++++++++++++++++++++to 4.18527e-07
Heightened Def Con from 4.18527e-07 ++++++++++++++++++++++++++++++++++++++to 4.18902e-07
Heightened Def Con from 4.18902e-07 ++++++++++++++++++++++++++++++++++++++to 4.19027e-07
Heightened Def Con from 4.19027e-07 ++++++++++++++++++++++++++++++++++++++to 4.19027e-07
Heightened Def Con from 4.19027e-07 ++++++++++++++++++++++++++++++++++++++to 4.19152e-07
Heightened Def Con from 4.19152e-07 +++++++++++++++++++++++++++++++++++++to 4.19152e-07
Heightened Def Con from 4.19152e-07 ++++++++++++++++++++++++++++++++++++++to 4.19277e-07
Heightened Def Con from 4.19277e-07 ++++++++++++++++++++++++++++++++++++++to 4.19402e-07
Heightened Def Con from 4.19402e-07 ++++++++++++++++++++++++++++++++++++++to 4.19527e-07
Heightened Def Con from 4.19527e-07 ++++++++++++++++++++++++++++++++++++++to 4.19652e-07
Heightened Def Con from 4.19652e-07 ++++++++++++++++++++++++++++++++++++++to 4.19777e-07
Heightened Def Con from 4.19777e-07 ++++++++++++++++++++++++++++++++++++++to 4.19902e-07
Heightened Def Con from 4.19902e-07 ++++++++++++++++++++++++++++++++++++++to 4.20027e-07
Heightened Def Con from 4.20027e-07 ++++++++++++++++++++++++++++++++++++++to 4.20152e-07
Heightened Def Con from 4.20152e-07 ++++++++++++++++++++++++++++++++++++++to 4.20277e-07
Heightened Def Con from 4.20277e-07 ++++++++++++++++++++++++++++++++++++++to 4.20402e-07
Heightened Def Con from 4.20402e-07 ++++++++++++++++++++++++++++++++++++++to 4.20527e-07
[...]
Heightened Def Con from 9.00942e-07 ++++++++++++++++++++++++++++++++++++++to 9.01067e-07
Heightened Def Con from 9.01067e-07 ++++++++++++++++++++++++++++++++++++++to 9.01192e-07
Heightened Def Con from 9.01192e-07 ++++++++++++++++++++++++++++++++++++++to 9.01317e-07
Heightened Def Con from 9.01317e-07 ++++++++++++++++++++++++++++++++++++++to 9.01442e-07
Heightened Def Con from 9.01442e-07 ++++++++++++++++++++++++++++++++++++++to 9.01567e-07
Heightened Def Con from 9.01567e-07 ++++++++++++++++++++++++++++++++++++++to 9.01692e-07
Heightened Def Con from 9.01692e-07 ++++++++++++++++++++++++++++++++++++++to 9.01817e-07
Heightened Def Con from 9.01817e-07 ++++++++++++++++++++++++++++++++++++++to 9.01942e-07
Heightened Def Con from 9.01942e-07 ++++++++++++++++++++++++++++++++++++++to 9.02067e-07
Heightened Def Con from 9.02067e-07 ++++++++++++++++++++++++++++++++++++++to 9.02192e-07
Heightened Def Con from 9.02192e-07 ++++++++++++++++++++++++++++++++++++++to 9.02317e-07
Heightened Def Con from 9.02317e-07 ++++++++++++++++++++++++++++++++++++++to 9.02442e-07
Heightened Def Con from 9.02442e-07 ++++++++++++++++++++++++++++++++++++++to 9.02567e-07
Heightened Def Con from 9.02567e-07 ++++++++++++++++++++++++++++++++++++++to 9.02692e-07
Heightened Def Con from 9.02692e-07 ++++++++++++++++++++++++++++++++++++++to 9.02817e-07
Heightened Def Con from 9.02817e-07 ++++++++++++++++++++++++++++++++++++++to 9.02942e-07
Heightened Def Con from 9.02942e-07 +++++++++++++++++++++++++++++++++++++to 9.02943e-07
Heightened Def Con from 9.02943e-07 ++++++++++++++++++++++++++++++++++++++to 9.03068e-07
Heightened Def Con from 9.03068e-07 ++++++++++++++++++++++++++++++++++++++to 9.03193e-07
Heightened Def Con from 9.03193e-07 ++++++++++++++++++++++++++++++++++++++to 9.03318e-07
Heightened Def Con from 9.03318e-07 +++++++++++++++++++++++++++++++++++++to 9.03318e-07
Heightened Def Con from 9.03318e-07 ++++++++++++++++++++++++++++++++++++++to 9.03443e-07
Heightened Def Con from 9.03443e-07 ++++++++++++++++++++++++++++++++++++++to 9.03568e-07
Heightened Def Con from 9.03568e-07 ++++++++++++++++++++++++++++++++++++++to 9.03693e-07
Heightened Def Con from 9.03693e-07 ++++++++++++++++++++++++++++++++++++++to 9.03818e-07
Heightened Def Con from 9.03818e-07 ++++++++++++++++++++++++++++++++++++++to 9.03943e-07
Heightened Def Con from 9.03943e-07 ++++++++++++++++++++++++++++++++++++++to 9.04068e-07
Heightened Def Con from 9.04068e-07 ++++++++++++++++++++++++++++++++++++++to 9.04193e-07
Heightened Def Con from 9.04193e-07 ++++++++++++++++++++++++++++++++++++++to 9.04318e-07
Heightened Def Con from 9.04318e-07 ++++++++++++++++++++++++++++++++++++++to 9.04443e-07
Heightened Def Con from 9.04443e-07 ++++++++++++++++++++++++++++++++++++++to 9.04568e-07
Heightened Def Con from 9.04568e-07 +++++++++++++++++++++++++++++++++++++to 9.04568e-07
Heightened Def Con from 9.04568e-07 ++++++++++++++++++++++++++++++++++++++to 9.04693e-07
Heightened Def Con from 9.04693e-07 ++++++++++++++++++++++++++++++++++++++to 9.04818e-07
Heightened Def Con from 9.04818e-07 ++++++++++++++++++++++++++++++++++++++to 9.04943e-07
Heightened Def Con from 9.04943e-07 ++++++++++++++++++++++++++++++++++++++to 9.05068e-07
Heightened Def Con from 9.05068e-07 ++++++++++++++++++++++++++++++++++++++to 9.05193e-07
Heightened Def Con from 9.05193e-07 ++++++++++++++++++++++++++++++++++++++to 9.05318e-07
Heightened Def Con from 9.05318e-07 ++++++++++++++++++++++++++++++++++++++to 9.05443e-07
Heightened Def Con from 9.05443e-07 ++++++++++++++++++++++++++++++++++++++to 9.05568e-07
Heightened Def Con from 9.05568e-07 ++++++++++++++++++++++++++++++++++++++to 9.05693e-07
Heightened Def Con from 9.05693e-07 ++++++++++++++++++++++++++++++++++++++to 9.05818e-07
Heightened Def Con from 9.05818e-07 ++++++++++++++++++++++++++++++++++++++to 9.05943e-07
Heightened Def Con from 9.05943e-07 ++++++++++++++++++++++++++++++++++++++to 9.06068e-07
Heightened Def Con from 9.06068e-07 ++++++++++++++++++++++++++++++++++++++to 9.06193e-07
Heightened Def Con from 9.06193e-07 ++++++++++++++++++++++++++++++++++++++to 9.06318e-07
Heightened Def Con from 9.06318e-07 ++++++++++++++++++++++++++++++++++++++to 9.06443e-07
Heightened Def Con from 9.06443e-07 ++++++++++++++++++++++++++++++++++++++to 9.06568e-07
Heightened Def Con from 9.06568e-07 ++++++++++++++++++++++++++++++++++++++to 9.06693e-07
Heightened Def Con from 9.06693e-07 ++++++++++++++++++++++++++++++++++++++to 9.06818e-07
Heightened Def Con from 9.06818e-07 ++++++++++++++++++++++++++++++++++++++to 9.06943e-07
Heightened Def Con from 9.06943e-07 ++++++++++++++++++++++++++++++++++++++to 9.07068e-07
Heightened Def Con from 9.07068e-07 ++++++++++++++++++++++++++++++++++++++to 9.07193e-07
Heightened Def Con from 9.07193e-07 ++++++++++++++++++++++++++++++++++++++to 9.07318e-07
Heightened Def Con from 9.07318e-07 ++++++++++++++++++++++++++++++++++++++to 9.07443e-07
Heightened Def Con from 9.07443e-07 ++++++++++++++++++++++++++++++++++++++to 9.07568e-07
Heightened Def Con from 9.07568e-07 ++++++++++++++++++++++++++++++++++++++to 9.07693e-07
Heightened Def Con from 9.07693e-07 ++++++++++++++++++++++++++++++++++++++to 9.07818e-07
Heightened Def Con from 9.07818e-07 ++++++++++++++++++++++++++++++++++++++to 9.07943e-07
Heightened Def Con from 9.07943e-07 ++++++++++++++++++++++++++++++++++++++to 9.08068e-07
Heightened Def Con from 9.08068e-07 ++++++++++++++++++++++++++++++++++++++to 9.08193e-07
Heightened Def Con from 9.08193e-07 ++++++++++++++++++++++++++++++++++++++to 9.08318e-07
Heightened Def Con from 9.08318e-07 ++++++++++++++++++++++++++++++++++++++to 9.08443e-07
Heightened Def Con from 9.08443e-07 ++++++++++++++++++++++++++++++++++++++to 9.08568e-07
Heightened Def Con from 9.08568e-07 ++++++++++++++++++++++++++++++++++++++to 9.08693e-07
Heightened Def Con from 9.08693e-07 ++++++++++++++++++++++++++++++++++++++to 9.08818e-07
Heightened Def Con from 9.08818e-07 ++++++++++++++++++++++++++++++++++++++to 9.08943e-07
Heightened Def Con from 9.08943e-07 ++++++++++++++++++++++++++++++++++++++to 9.09068e-07
Heightened Def Con from 9.09068e-07 ++++++++++++++++++++++++++++++++++++++to 9.09193e-07
Heightened Def Con from 9.09193e-07 ++++++++++++++++++++++++++++++++++++++to 9.09318e-07
Heightened Def Con from 9.09318e-07 ++++++++++++++++++++++++++++++++++++++to 9.09443e-07
Heightened Def Con from 9.09443e-07 ++++++++++++++++++++++++++++++++++++++to 9.09568e-07
Heightened Def Con from 9.09568e-07 ++++++++++++++++++++++++++++++++++++++to 9.09693e-07
Heightened Def Con from 9.09693e-07 ++++++++++++++++++++++++++++++++++++++to 9.09818e-07
Heightened Def Con from 9.09818e-07 ++++++++++++++++++++++++++++++++++++++to 9.09943e-07
Heightened Def Con from 9.09943e-07 ++++++++++++++++++++++++++++++++++++++to 9.10068e-07
Heightened Def Con from 9.10068e-07 ++++++++++++++++++++++++++++++++++++++to 9.10193e-07
Heightened Def Con from 9.10193e-07 ++++++++++++++++++++++++++++++++++++++to 9.10318e-07
Heightened Def Con from 9.10318e-07 ++++++++++++++++++++++++++++++++++++++to 9.10443e-07
Heightened Def Con from 9.10443e-07 ++++++++++++++++++++++++++++++++++++++to 9.10568e-07
Heightened Def Con from 9.10568e-07 ++++++++++++++++++++++++++++++++++++++to 9.10693e-07
Heightened Def Con from 9.10693e-07 ++++++++++++++++++++++++++++++++++++++to 9.10818e-07
Heightened Def Con from 9.10818e-07 ++++++++++++++++++++++++++++++++++++++to 9.10943e-07
Heightened Def Con from 9.10943e-07 ++++++++++++++++++++++++++++++++++++++to 9.11068e-07
Heightened Def Con from 9.11068e-07 ++++++++++++++++++++++++++++++++++++++to 9.11193e-07
Heightened Def Con from 9.11193e-07 ++++++++++++++++++++++++++++++++++++++to 9.11318e-07
Heightened Def Con from 9.11318e-07 ++++++++++++++++++++++++++++++++++++++to 9.11443e-07
Heightened Def Con from 9.11443e-07 ++++++++++++++++++++++++++++++++++++++to 9.11568e-07
Heightened Def Con from 9.11568e-07 ++++++++++++++++++++++++++++++++++++++to 9.11693e-07
Heightened Def Con from 9.11693e-07 ++++++++++++++++++++++++++++++++++++++to 9.11818e-07
Heightened Def Con from 9.11818e-07 ++++++++++++++++++++++++++++++++++++++to 9.11943e-07
Heightened Def Con from 9.11943e-07 ++++++++++++++++++++++++++++++++++++++to 9.12068e-07
Heightened Def Con from 9.12068e-07 ++++++++++++++++++++++++++++++++++++++to 9.12193e-07
Heightened Def Con from 9.12193e-07 ++++++++++++++++++++++++++++++++++++++to 9.12318e-07
Heightened Def Con from 9.12318e-07 ++++++++++++++++++++++++++++++++++++++to 9.12443e-07
Heightened Def Con from 9.12443e-07 ++++++++++++++++++++++++++++++++++++++to 9.12568e-07
Heightened Def Con from 9.12568e-07 ++++++++++++++++++++++++++++++++++++++to 9.12693e-07
Heightened Def Con from 9.12693e-07 +++++++++++++++++++++++++++++++++++++to 9.12693e-07
Heightened Def Con from 9.12693e-07 ++++++++++++++++++++++++++++++++++++++to 9.12818e-07
Heightened Def Con from 9.12818e-07 ++++++++++++++++++++++++++++++++++++++to 9.12943e-07
Heightened Def Con from 9.12943e-07 ++++++++++++++++++++++++++++++++++++++to 9.13068e-07
Heightened Def Con from 9.13068e-07 ++++++++++++++++++++++++++++++++++++++to 9.13193e-07
Heightened Def Con from 9.13193e-07 ++++++++++++++++++++++++++++++++++++++to 9.13318e-07
Heightened Def Con from 9.13318e-07 ++++++++++++++++++++++++++++++++++++++to 9.13443e-07
Heightened Def Con from 9.13443e-07 ++++++++++++++++++++++++++++++++++++++to 9.13568e-07
Heightened Def Con from 9.13568e-07 ++++++++++++++++++++++++++++++++++++++to 9.13693e-07
Heightened Def Con from 9.13693e-07 ++++++++++++++++++++++++++++++++++++++to 9.13818e-07
Heightened Def Con from 9.13818e-07 ++++++++++++++++++++++++++++++++++++++to 9.13943e-07
Heightened Def Con from 9.13943e-07 ++++++++++++++++++++++++++++++++++++++to 9.14068e-07
Heightened Def Con from 9.14068e-07 ++++++++++++++++++++++++++++++++++++++to 9.14193e-07
Heightened Def Con from 9.14193e-07 ++++++++++++++++++++++++++++++++++++++to 9.14318e-07
Heightened Def Con from 9.14318e-07 ++++++++++++++++++++++++++++++++++++++to 9.14443e-07
Heightened Def Con from 9.14443e-07 ++++++++++++++++++++++++++++++++++++++to 9.14568e-07
Heightened Def Con from 9.14568e-07 ++++++++++++++++++++++++++++++++++++++to 9.14693e-07
Heightened Def Con from 9.14693e-07 ++++++++++++++++++++++++++++++++++++++to 9.14818e-07
Heightened Def Con from 9.14818e-07 ++++++++++++++++++++++++++++++++++++++to 9.14943e-07
Heightened Def Con from 9.14943e-07 ++++++++++++++++++++++++++++++++++++++to 9.15068e-07
Heightened Def Con from 9.15068e-07 ++++++++++++++++++++++++++++++++++++++to 9.15193e-07
Heightened Def Con from 9.15193e-07 ++++++++++++++++++++++++++++++++++++++to 9.15318e-07
Heightened Def Con from 9.15318e-07 ++++++++++++++++++++++++++++++++++++++to 9.15443e-07
Heightened Def Con from 9.15443e-07 ++++++++++++++++++++++++++++++++++++++to 9.15568e-07
Heightened Def Con from 9.15568e-07 ++++++++++++++++++++++++++++++++++++++to 9.15693e-07
Heightened Def Con from 9.15693e-07 ++++++++++++++++++++++++++++++++++++++to 9.15818e-07
Heightened Def Con from 9.15818e-07 ++++++++++++++++++++++++++++++++++++++to 9.15943e-07
Heightened Def Con from 9.15943e-07 ++++++++++++++++++++++++++++++++++++++to 9.16068e-07
Heightened Def Con from 9.16068e-07 ++++++++++++++++++++++++++++++++++++++to 9.16193e-07
Heightened Def Con from 9.16193e-07 ++++++++++++++++++++++++++++++++++++++to 9.16318e-07
Heightened Def Con from 9.16318e-07 ++++++++++++++++++++++++++++++++++++++to 9.16443e-07
Heightened Def Con from 9.16443e-07 ++++++++++++++++++++++++++++++++++++++to 9.16568e-07
Heightened Def Con from 9.16568e-07 ++++++++++++++++++++++++++++++++++++++to 9.16693e-07
Heightened Def Con from 9.16693e-07 ++++++++++++++++++++++++++++++++++++++to 9.16818e-07
Heightened Def Con from 9.16818e-07 ++++++++++++++++++++++++++++++++++++++to 9.16943e-07
Heightened Def Con from 9.16943e-07 ++++++++++++++++++++++++++++++++++++++to 9.17068e-07
Heightened Def Con from 9.17068e-07 ++++++++++++++++++++++++++++++++++++++to 9.17193e-07
Heightened Def Con from 9.17193e-07 ++++++++++++++++++++++++++++++++++++++to 9.17318e-07
Heightened Def Con from 9.17318e-07 ++++++++++++++++++++++++++++++++++++++to 9.17443e-07
Heightened Def Con from 9.17443e-07 ++++++++++++++++++++++++++++++++++++++to 9.17568e-07
Heightened Def Con from 9.17568e-07 +++++++++++++++++++++++++++++++++++++to 9.17568e-07
Heightened Def Con from 9.17568e-07 ++++++++++++++++++++++++++++++++++++++to 9.17693e-07
Heightened Def Con from 9.17693e-07 ++++++++++++++++++++++++++++++++++++++to 9.17818e-07
Heightened Def Con from 9.17818e-07 ++++++++++++++++++++++++++++++++++++++to 9.17943e-07
Heightened Def Con from 9.17943e-07 ++++++++++++++++++++++++++++++++++++++to 9.18068e-07
Heightened Def Con from 9.18068e-07 ++++++++++++++++++++++++++++++++++++++to 9.18193e-07
Heightened Def Con from 9.18193e-07 ++++++++++++++++++++++++++++++++++++++to 9.18318e-07
Heightened Def Con from 9.18318e-07 ++++++++++++++++++++++++++++++++++++++to 9.18443e-07
Heightened Def Con from 9.18443e-07 ++++++++++++++++++++++++++++++++++++++to 9.18568e-07
Heightened Def Con from 9.18568e-07 ++++++++++++++++++++++++++++++++++++++to 9.18693e-07
Heightened Def Con from 9.18693e-07 +++++++++++++++++++++++++++++++++++++to 9.18693e-07
Heightened Def Con from 9.18693e-07 ++++++++++++++++++++++++++++++++++++++to 9.18818e-07
Heightened Def Con from 9.18818e-07 ++++++++++++++++++++++++++++++++++++++to 9.18943e-07
Heightened Def Con from 9.18943e-07 ++++++++++++++++++++++++++++++++++++++to 9.19068e-07
Heightened Def Con from 9.19068e-07 ++++++++++++++++++++++++++++++++++++++to 9.19193e-07
Heightened Def Con from 9.19193e-07 ++++++++++++++++++++++++++++++++++++++to 9.19318e-07
Heightened Def Con from 9.19318e-07 ++++++++++++++++++++++++++++++++++++++to 9.19443e-07
Heightened Def Con from 9.19443e-07 ++++++++++++++++++++++++++++++++++++++to 9.19568e-07
Heightened Def Con from 9.19568e-07 ++++++++++++++++++++++++++++++++++++++to 9.19693e-07
Heightened Def Con from 9.19693e-07 ++++++++++++++++++++++++++++++++++++++to 9.19818e-07
Heightened Def Con from 9.19818e-07 +++++++++++++++++++++++++++++++++++++to 9.19818e-07
Heightened Def Con from 9.19818e-07 ++++++++++++++++++++++++++++++++++++++to 9.19943e-07
Heightened Def Con from 9.19943e-07 ++++++++++++++++++++++++++++++++++++++to 9.20068e-07
Heightened Def Con from 9.20068e-07 ++++++++++++++++++++++++++++++++++++++to 9.20193e-07
Heightened Def Con from 9.20193e-07 ++++++++++++++++++++++++++++++++++++++to 9.20318e-07
Heightened Def Con from 9.20318e-07 ++++++++++++++++++++++++++++++++++++++to 9.20443e-07
Heightened Def Con from 9.20443e-07 ++++++++++++++++++++++++++++++++++++++to 9.20568e-07
Heightened Def Con from 9.20568e-07 ++++++++++++++++++++++++++++++++++++++to 9.20693e-07
Heightened Def Con from 9.20693e-07 ++++++++++++++++++++++++++++++++++++++to 9.20818e-07
Heightened Def Con from 9.20818e-07 ++++++++++++++++++++++++++++++++++++++to 9.20943e-07
Heightened Def Con from 9.20943e-07 ++++++++++++++++++++++++++++++++++++++to 9.21068e-07
Heightened Def Con from 9.21068e-07 ++++++++++++++++++++++++++++++++++++++to 9.21193e-07
Heightened Def Con from 9.21193e-07 ++++++++++++++++++++++++++++++++++++++to 9.21318e-07
Heightened Def Con from 9.21318e-07 ++++++++++++++++++++++++++++++++++++++to 9.21443e-07
Heightened Def Con from 9.21443e-07 ++++++++++++++++++++++++++++++++++++++to 9.21568e-07
Heightened Def Con from 9.21568e-07 ++++++++++++++++++++++++++++++++++++++to 9.21693e-07
Heightened Def Con from 9.21693e-07 ++++++++++++++++++++++++++++++++++++++to 9.21818e-07
Heightened Def Con from 9.21818e-07 ++++++++++++++++++++++++++++++++++++++to 9.21943e-07
Heightened Def Con from 9.21943e-07 ++++++++++++++++++++++++++++++++++++++to 9.22068e-07
Heightened Def Con from 9.22068e-07 ++++++++++++++++++++++++++++++++++++++to 9.22193e-07
Heightened Def Con from 9.22193e-07 +++++++++++++++++++++++++++++++++++++to 9.22193e-07
Heightened Def Con from 9.22193e-07 ++++++++++++++++++++++++++++++++++++++to 9.22318e-07
Heightened Def Con from 9.22318e-07 ++++++++++++++++++++++++++++++++++++++to 9.22443e-07
Heightened Def Con from 9.22443e-07 ++++++++++++++++++++++++++++++++++++++to 9.22568e-07
Heightened Def Con from 9.22568e-07 ++++++++++++++++++++++++++++++++++++++to 9.22693e-07
Heightened Def Con from 9.22693e-07 ++++++++++++++++++++++++++++++++++++++to 9.22818e-07
Heightened Def Con from 9.22818e-07 ++++++++++++++++++++++++++++++++++++++to 9.22943e-07
Heightened Def Con from 9.22943e-07 ++++++++++++++++++++++++++++++++++++++to 9.23068e-07
Heightened Def Con from 9.23068e-07 ++++++++++++++++++++++++++++++++++++++to 9.23193e-07
Heightened Def Con from 9.23193e-07 ++++++++++++++++++++++++++++++++++++++to 9.23318e-07
Heightened Def Con from 9.23318e-07 ++++++++++++++++++++++++++++++++++++++to 9.23443e-07
Heightened Def Con from 9.23443e-07 ++++++++++++++++++++++++++++++++++++++to 9.23568e-07
Heightened Def Con from 9.23568e-07 ++++++++++++++++++++++++++++++++++++++to 9.23693e-07
Heightened Def Con from 9.23693e-07 ++++++++++++++++++++++++++++++++++++++to 9.23818e-07
Heightened Def Con from 9.23818e-07 ++++++++++++++++++++++++++++++++++++++to 9.23943e-07
Heightened Def Con from 9.23943e-07 ++++++++++++++++++++++++++++++++++++++to 9.24068e-07
Heightened Def Con from 9.24068e-07 ++++++++++++++++++++++++++++++++++++++to 9.24193e-07
Heightened Def Con from 9.24193e-07 ++++++++++++++++++++++++++++++++++++++to 9.24318e-07
Heightened Def Con from 9.24318e-07 ++++++++++++++++++++++++++++++++++++++to 9.24443e-07
Heightened Def Con from 9.24443e-07 ++++++++++++++++++++++++++++++++++++++to 9.24568e-07
Heightened Def Con from 9.24568e-07 ++++++++++++++++++++++++++++++++++++++to 9.24693e-07
Heightened Def Con from 9.24693e-07 ++++++++++++++++++++++++++++++++++++++to 9.24818e-07
Heightened Def Con from 9.24818e-07 ++++++++++++++++++++++++++++++++++++++to 9.24943e-07
Heightened Def Con from 9.24943e-07 ++++++++++++++++++++++++++++++++++++++to 9.25068e-07
Heightened Def Con from 9.25068e-07 ++++++++++++++++++++++++++++++++++++++to 9.25193e-07
Heightened Def Con from 9.25193e-07 ++++++++++++++++++++++++++++++++++++++to 9.25318e-07
Heightened Def Con from 9.25318e-07 ++++++++++++++++++++++++++++++++++++++to 9.25443e-07
Heightened Def Con from 9.25443e-07 ++++++++++++++++++++++++++++++++++++++to 9.25568e-07
Heightened Def Con from 9.25568e-07 ++++++++++++++++++++++++++++++++++++++to 9.25693e-07
Heightened Def Con from 9.25693e-07 ++++++++++++++++++++++++++++++++++++++to 9.25818e-07
Heightened Def Con from 9.25818e-07 ++++++++++++++++++++++++++++++++++++++to 9.25943e-07
Heightened Def Con from 9.25943e-07 ++++++++++++++++++++++++++++++++++++++to 9.26068e-07
Heightened Def Con from 9.26068e-07 ++++++++++++++++++++++++++++++++++++++to 9.26193e-07
Heightened Def Con from 9.26193e-07 ++++++++++++++++++++++++++++++++++++++to 9.26318e-07
Heightened Def Con from 9.26318e-07 ++++++++++++++++++++++++++++++++++++++to 9.26443e-07
Heightened Def Con from 9.26443e-07 ++++++++++++++++++++++++++++++++++++++to 9.26568e-07
Heightened Def Con from 9.26568e-07 ++++++++++++++++++++++++++++++++++++++to 9.26693e-07
Heightened Def Con from 9.26693e-07 ++++++++++++++++++++++++++++++++++++++to 9.26818e-07
Heightened Def Con from 9.26818e-07 ++++++++++++++++++++++++++++++++++++++to 9.26943e-07
Heightened Def Con from 9.26943e-07 ++++++++++++++++++++++++++++++++++++++to 9.27068e-07
Heightened Def Con from 9.27068e-07 +++++++++++++++++++++++++++++++++++++to 9.27068e-07
Heightened Def Con from 9.27068e-07 ++++++++++++++++++++++++++++++++++++++to 9.27193e-07
Heightened Def Con from 9.27193e-07 ++++++++++++++++++++++++++++++++++++++to 9.27318e-07
Heightened Def Con from 9.27318e-07 ++++++++++++++++++++++++++++++++++++++to 9.27443e-07
Heightened Def Con from 9.27443e-07 ++++++++++++++++++++++++++++++++++++++to 9.27568e-07
Heightened Def Con from 9.27568e-07 ++++++++++++++++++++++++++++++++++++++to 9.27693e-07
Heightened Def Con from 9.27693e-07 to 9.27693e-07
Total elapsed time: 69.083 seconds.

