LTspice 24.0.12 for Windows
Circuit: * C:\Users\Ernesto\Desktop\Ingeniería Electrónica\9- Noveno Semestre\Electrónica Industrial\1- Trabajos Prácticos\2- Trabajos Prácticos del Teórico (TPT)\TPT3 - Rectificación\TPT3 - Circuito Rectificador Hexafásico de Media Onda.asc
Start Time: Wed Mar 25 03:09:43 2026
solver = Normal
Maximum thread count: 12
tnom = 27
temp = 27
method = modified trap
Direct Newton iteration for .op point succeeded.
Total elapsed time: 0.138 seconds.

