LTspice 24.0.12 for Windows
Circuit: * C:\Users\Ernesto\Desktop\Ingenier僘 Electrica\9- Noveno Semestre\Electrica Industrial\1- Trabajos Pr當ticos\1- Trabajos Pr當ticos del Teico (TPT)\TPT6 - Tiristores\TPT6 - Rectificador Trif疽ico Semicontrolado.asc
Start Time: Tue Apr 28 11:23:16 2026
solver = Normal
Maximum thread count: 12
tnom = 27
temp = 27
method = modified trap
U1:viak: Missing value, assumed 0V @ DC
U1:vigf: Missing value, assumed 0V @ DC
U2:viak: Missing value, assumed 0V @ DC
U2:vigf: Missing value, assumed 0V @ DC
U3:viak: Missing value, assumed 0V @ DC
U3:vigf: Missing value, assumed 0V @ DC
Direct Newton iteration failed to find .op point.  (Use ".option noopiter" to skip.)
Starting Gmin stepping
Gmin = 10
Gmin = 1.07374
Gmin = 0.115292
Gmin = 0.0123794
Gmin = 0.00132923
Singular matrix:  Check node u3:anode0
   Iteration No. 38
Gmin = 0
Singular matrix:  Check nodes d:u1:ton#int1 and u3:control
   Iteration No. 1
Gmin stepping failed

Starting source stepping with srcstepmethod=0
Source Step = 3.0303%
Source Step = 33.3333%
Source Step = 39.3939%
vernier = 0.015625
Source Step = 39.388%
Source Step = 39.4176%
Source Step = 39.4472%
Source Step = 39.4768%
Source Step = 39.5064%
Source Step = 39.536%
vernier = 0.00146484
Source Step = 39.5789%
Source Step = 39.6233%
Source Step = 39.6677%
Source Step = 39.7121%
Source Step = 39.7565%
vernier = 0.00219727
Source Step = 39.8186%
Source Step = 39.8852%
Source Step = 39.9518%
Source Step = 40.0183%
Source Step = 40.0849%
vernier = 0.0032959
Source Step = 40.1748%
Source Step = 40.2747%
Source Step = 40.3746%
Source Step = 40.4744%
Source Step = 40.5743%
vernier = 0.00494385
Source Step = 40.7042%
Source Step = 40.854%
Source Step = 41.0038%
Source Step = 41.1536%
Source Step = 41.3034%
vernier = 0.00741577
Source Step = 41.4907%
Source Step = 41.7154%
Source Step = 41.9401%
Source Step = 42.1648%
Source Step = 42.3896%
vernier = 0.0111237
Source Step = 42.6592%
Source Step = 42.8109%
Source Step = 42.8952%
Source Step = 42.9795%
Source Step = 43.0637%
Source Step = 43.148%
vernier = 0.00417137
Source Step = 43.2365%
Source Step = 43.3629%
Source Step = 43.4893%
Source Step = 43.6157%
Source Step = 43.7421%
Source Step = 43.8685%
vernier = 0.00625706
Source Step = 44.0581%
Source Step = 44.2477%
Source Step = 44.4373%
Source Step = 44.6269%
Source Step = 44.8165%
vernier = 0.00938559
Source Step = 45.0915%
Source Step = 45.3759%
Source Step = 45.6603%
Source Step = 45.9447%
Source Step = 46.2291%
vernier = 0.0140784
Source Step = 46.6273%
Source Step = 47.0539%
Source Step = 47.4805%
Source Step = 47.9072%
Source Step = 48.3338%
vernier = 0.0211176
Source Step = 48.9097%
Source Step = 49.5496%
Source Step = 50.1896%
Source Step = 50.8295%
Source Step = 51.4694%
vernier = 0.0316764
Source Step = 52.3013%
Source Step = 53.2612%
Source Step = 54.2211%
Source Step = 55.181%
Source Step = 56.1409%
vernier = 0.0475145
Source Step = 57.3407%
Source Step = 58.7806%
Source Step = 60.2204%
Source Step = 61.6602%
Source Step = 63.1001%
vernier = 0.0712718
Source Step = 64.8279%
Source Step = 66.9876%
Source Step = 69.1474%
Source Step = 71.3071%
Source Step = 73.4669%
vernier = 0.106908
Source Step = 75.9506%
Source Step = 79.1902%
Source Step = 82.4298%
Source Step = 85.6695%
Source Step = 88.9091%
vernier = 0.160362
Source Step = 92.4727%
Source Step = 97.3321%
Source Step = 100%
Source stepping succeeded in finding the operating point.

Total elapsed time: 0.820 seconds.

