LTspice 24.0.12 for Windows
Circuit: * C:\Users\Ernesto\Desktop\Ingeniería Electrónica\9- Noveno Semestre\Electrónica Industrial\1- Trabajos Prácticos\1- Trabajos Prácticos del Teórico (TPT)\TPT6 - Tiristores\TPT6 - Rectificador Trifásico Semicontrolado.asc
Start Time: Sun May  3 04:33:22 2026
solver = Normal
Maximum thread count: 12
tnom = 27
temp = 27
method = modified trap
U1:viak: Missing value, assumed 0V @ DC
U1:vigf: Missing value, assumed 0V @ DC
U2:viak: Missing value, assumed 0V @ DC
U2:vigf: Missing value, assumed 0V @ DC
U3:viak: Missing value, assumed 0V @ DC
U3:vigf: Missing value, assumed 0V @ DC
Direct Newton iteration failed to find .op point.  (Use ".option noopiter" to skip.)
Starting Gmin stepping
Gmin = 10
Gmin = 1.07374
Gmin = 0.115292
Gmin = 0.0123794
Gmin = 0.00132923
vernier = 0.5
Singular matrix:  Check node d:u1:toff#int1
   Iteration No. 63
Gmin = 0
Singular matrix:  Check node d:u1:toff#int1
   Iteration No. 1
Gmin stepping failed

Starting source stepping with srcstepmethod=0
Source Step = 3.0303%
Source Step = 33.3333%
Source Step = 63.6364%
Source Step = 93.9394%
Source stepping succeeded in finding the operating point.

Total elapsed time: 0.454 seconds.

