LTspice 24.0.12 for Windows
Circuit: * C:\Users\Ernesto\Desktop\Ingeniería Electrónica\9- Noveno Semestre\Electrónica Industrial\1- Trabajos Prácticos\2- Trabajos Prácticos del Teórico (TPT)\TPT5 - Circuito de Disparo para MOSFET\Simulaciones Extra\TPT5 - Configuración del SG3525.asc
Start Time: Sun Apr 19 21:25:52 2026
solver = Normal
Maximum thread count: 12
tnom = 27
temp = 27
method = modified trap
WARNING: Less than two connections to node nc_02.  This node is used by r:u1:18.
Direct Newton iteration for .op point succeeded.
Ignoring empty pin current: Ix(u1:gnd)
Ignoring empty pin current: Ix(u1:gnd)
Total elapsed time: 0.611 seconds.

