LTspice 24.0.12 for Windows
Circuit: * C:\Users\Ernesto\Desktop\Ingeniería Electrónica\9- Noveno Semestre\Electrónica Industrial\1- Trabajos Prácticos\2- Trabajos Prácticos del Teórico (TPT)\TPT5 - Circuito de Disparo para MOSFET\TPT5 - Configuración del Transformador.asc
Start Time: Sun Apr 19 17:56:51 2026
solver = Normal
Maximum thread count: 12
tnom = 27
temp = 27
method = modified trap
.OP point found by inspection.
Total elapsed time: 0.053 seconds.

