LTspice 24.0.12 for Windows
Circuit: * C:\Users\Ernesto\Desktop\Ingeniería Electrónica\9- Noveno Semestre\Electrónica Industrial\1- Trabajos Prácticos\1- Trabajos Prácticos del Teórico (TPT)\TPT7 - Circuito de Disparo para Tiristores\TPT7 - Circuito de Disparo para Tiristores.asc
Start Time: Sun May  3 00:46:40 2026
solver = Normal
Maximum thread count: 12
tnom = 27
temp = 27
method = modified trap
U2:viak: Missing value, assumed 0V @ DC
U2:vigf: Missing value, assumed 0V @ DC
U3:viak: Missing value, assumed 0V @ DC
U3:vigf: Missing value, assumed 0V @ DC
.OP point found by inspection.
Total elapsed time: 4.271 seconds.

